<routes>
	<vType id="passenger" vClass="passenger" startupDelay="0.75" desiredMaxSpeed="12.5" speedFactor="1.0" speedDev="0" sigma="0" />

<route id="1-40" edges="682608864#1 374528655 120613500#0 120613500#1 120613502 577248827#1 28908903#0 371344296#0 371344296#1 371344296#2 602621681 602621673 498169246 889067535 69184467#1 580414174 8143580#1 53275982#0 4734976#0 461211027 461211028 577246823#0 E8 E6 4687956#0 " />
<route id="1-46" edges="682608864#1 374528655 120613500#0 120613500#1 120613502 577248827#1 51265912#0 51265912#1 1121964959#2 4730406#0 27014767 20020535#0 20020535#0.77 20020535#0.215 27014785#0 4730408#2 4687935#0 860373105#0 860373105#1 860373105#2 10750844#0 86145639#0 86145639#1 86145639#3 28128202#0 28128202#2 506653388#0 " />
<route id="1-47" edges="682608864#1 374528655 4799417 1062629833 -596103315#2 -332455405#1 -92142139 -4398951#1 -548370032 -548370033#1 4730416#1 548370035#0 548370031#1 334810149#0 334810149#1 548370029 968872142#0 968872142#1 548370028 548370030#0 968872143 548370037#0 548370037#1 28767220#0 35162766#0 331553004#0 1078174821 942348910#0 -86145636#2 86145637#0 284105538 -543129619#2 " />
<route id="1-48" edges="682608864#1 374528655 120613500#0 120613500#1 120613502 577248827#1 51265912#0 51265912#1 1121964959#2 4730406#0 27014767 20020535#0 20020535#0.77 20020535#0.215 27014785#0 4730408#2 4730409#0 377260491#0 " />
<route id="1-57-1" edges="682608864#1 374528655 4799417 1062629833 -596103315#2 92142133 " />
<route id="1-57-2" edges="682608864#1 374528655 4799417 1062629833 -596103315#2 -332455405#1 -92142139 -4398951#1 -548370032 -548370033#1 4730416#1 548370035#0 548370031#1 334810149#0 334810149#1 548370029 968872142#0 968872142#1 548370028 548370030#0 548370036 15801838#0 33694486#0 -26127384#2 " />
<route id="1-57-3" edges="682608864#1 374528655 120613500#0 120613500#1 120613502 577248827#1 51265912#0 51265912#1 1121964959#2 4730406#0 27014767 20020535#0 20020535#0.77 E2 " />
<route id="1-57-4" edges="682608864#1 374528655 120613500#0 120613500#1 120613502 577248827#1 51265912#0 51265912#1 1121964959#2 E5 E9 E10 217451773#0 -526017777#1 -526016665 -548529065 -5772448#2 " />
<route id="1-41" edges="682608864#1 374528655 4799417 1062629833 -596103315#2 -627360923 136617339#0 532158278#0 549356141#0 549356141#1 532158277#0 423368254#0 423368254#2 146783879#0 43068084#0 601313558#0 147633771#0 559462254#0 " />
<route id="1-42" edges="682608864#1 374528655 4799417 1062629833 -596103315#2 -627360923 136617339#0 532158278#0 549356141#0 549356141#1 532158277#0 423368254#0 423368254#2 146783879#0 43068084#0 601313557#0 12618874#0 12618874#0.130 549020386#0 549020386#1 534851512#0 147636160#0 11916106#0 722646198 147636174#0 147636167 147636167.115 33556413#0 33556413#1 69537613 374407128 828445693#1 15677654#0 77079364#0 77079366 77078537#0 41455289#0 4479820#0 " />
<route id="1-43" edges="682608864#1 374528655 4799417 1062629833 -596103315#2 -627360923 136617339#0 532158278#0 549356141#0 549356141#1 532158277#0 423368254#0 423368254#2 146783879#0 43068084#0 601313558#0 147633771#0 11943595#0 1163500949#0 1113744422#2 4393002#2 4393002#7 4376120#0 198488290#0 198488290#1 198488290#4 522547661#0 5198100#0 " />
<route id="1-44" edges="682608864#1 374528655 4799417 1062629833 -596103315#2 -627360923 136617339#0 532158278#0 549356141#0 549356141#1 532158277#0 423368254#0 423368254#2 146783879#0 43068084#0 601313557#0 12618874#0 12618874#0.130 549020386#0 549020386#1 534851512#0 147636160#0 11916106#0 722646198 147636174#0 147636167 147636167.115 33556413#0 33556413#1 69537613 854904053 374407129#2 27361348#0 601718666#0 313458176#0 582263960#0 " />
<route id="1-45" edges="682608864#1 374528655 120613500#0 120613500#1 120613502 577248827#1 51265912#0 51265912#1 1121964959#2 4730406#0 27014767 20020535#0 20020535#0.77 20020535#0.215 27014785#0 4730408#2 4687935#0 860373105#0 860373105#1 860373105#2 10750844#0 86145639#0 86145639#1 86145639#3 565560611#0 14389891#0 14389891#4 1163569502#0 188708011 172222117#0 " />
<route id="1-58-1" edges="682608864#1 374528655 4799417 1062629833 -596103315#2 -627360923 136617339#0 532158278#0 549356141#0 549356141#1 532158277#0 423368254#0 423368254#2 146783879#0 43068084#0 601313557#0 12618874#0 12618874#0.130 549020386#0 549020386#1 534851512#0 147636160#0 11916106#0 722646198 623570426#0 " />
<route id="1-58-2" edges="682608864#1 374528655 4799417 1062629833 -596103315#2 -627360923 136617339#0 532158278#0 549356141#0 549356141#1 532158277#0 423368254#0 423368254#2 146783879#0 43068084#0 601313557#0 12618874#0 12618874#0.130 549020386#0 549020386#1 534851512#0 361876821 569781024 147692717#0 " />
<route id="1-58-3" edges="682608864#1 374528655 4799417 1062629833 -596103315#2 -627360923 136617339#0 532158278#0 549356141#0 549356141#1 532158277#0 423368254#0 423368254#2 146783879#0 43068084#0 601313557#0 12618874#0 E0 " />
<route id="1-56" edges="682608864#1 374528655 120613500#0 120613500#1 120613502 577248827#1 51265912#0 51265912#1 1121964959#2 E5 E9 E10 -821304189#1 -1111971585#4 -1111971585#2 -527458585#4 -527458585#4.48 -527458585#1 -4533227#5 -4533227#5.122 31261713#0 " />
<route id="1-59-1" edges="682608864#1 374528655 120613500#0 120613500#1 120613502 577248827#1 51265912#0 51265912#1 1121964959#2 E5 E9 E10 -821304189#1 -1111971585#4 -1111971585#2 -527458585#4 E12 " />
<route id="1-59-2" edges="682608864#1 374528655 120613500#0 120613500#1 120613502 577248827#1 51265912#0 51265912#1 1121964959#2 E5 E9 E10 -821304189#1 -1111971585#4 -1111971585#2 -527458585#4 -527458585#4.48 -527458585#1 -4743764#3 -4533225#7 -4533225#2 -313465295#6 4592655#0 " />
<route id="1-49" edges="682608864#1 374528655 120613500#0 120613500#1 120613502 577248827#1 51265912#0 51265912#1 1121964959#2 E5 E9 E10 217451773#0 -526017777#1 -526016665 -548529065 536841066 526016662#0 526016662#2 526016640#0 -11917063#2 -1089407128#2 -15675745#2 -842455631 -603349777#1 5944806#0 30640436#0 30640436#1 976011959#0 507747915 5944799#1 32928276 -488736536#2 -73223940#1 -284105543#1 -548701322#1 -464916844#1 -464916844#0 -70748324#1 " />
<route id="1-50" edges="682608864#1 374528655 120613500#0 120613500#1 120613502 577248827#1 51265912#0 51265912#1 1121964959#2 E5 E9 E10 217451773#0 -526017777#1 -526016665 -548529065 536841066 526016662#0 526016662#2 526016640#0 -11917063#2 -1089407128#2 -15675745#2 -842455631 -603349777#1 5944806#0 30640436#0 30640436#1 976011959#0 507747915 5944799#1 32928276 149246860#0 149246860#3 149246860#5 537731487#0 152419232#0 32928524#0 32928524#1 32928524#3 32928521#0 537731485#0 537731485#2 32928505 24596908#0 -820964111#5 -820964111#1 -172288344#4 -172288344#2 -172288344#1 " />
<route id="1-51" edges="682608864#1 374528655 120613500#0 120613500#1 120613502 577248827#1 51265912#0 51265912#1 1121964959#2 E5 E9 E10 217451773#0 -526017777#1 -526016665 -548529065 536841066 526016662#0 526016662#2 526016640#0 -11917063#2 -1089407128#2 -15675745#2 -842455631 -603349777#1 5944806#0 30640436#0 30640436#1 976011959#0 507747915 5944799#1 32928276 149246860#0 149246860#3 149246860#5 537731487#0 152419232#0 24586241#0 147161796#0 822520818#1 27473985#0 " />
<route id="1-52" edges="682608864#1 374528655 120613500#0 120613500#1 120613502 577248827#1 51265912#0 51265912#1 1121964959#2 E5 E9 E10 217451773#0 -526017777#1 -526016665 -548529065 536841066 526016662#0 526016662#2 526016640#0 -11917063#2 -1089407128#2 -15675745#2 -842455631 -603349777#1 75470557#1 284686652#0 284686647#0 547047274#0 547047277#0 28682875#0 27433876#0 27433876#5 5944797 -70748314#3 -26154816#2 -26154817#2 -15218556#10 -15218556#8 -15218556#7 -15218556#5 " />
<route id="1-53" edges="682608864#1 374528655 120613500#0 120613500#1 120613502 577248827#1 51265912#0 51265912#1 1121964959#2 E5 E9 E10 217451773#0 -526017777#1 -526016665 -548529065 536841066 526016662#0 526016662#2 526016640#0 -11917063#2 -1089407128#2 -15675745#2 -842455631 -603349777#1 75470557#1 284686652#0 284686647#0 547047274#0 547047277#0 28682875#0 27433876#0 27433876#5 5944797 -70748314#3 -26154816#2 -26154817#2 -15218556#10 -15218556#8 -15218556#7 -73848804#18 -73848804#16 -73848804#14 -73848804#13 -73848804#11 -73848804#8 -73848804#4 -73848804#2 -583730162#1 5881719#0 " />
<route id="1-54" edges="682608864#1 374528655 120613500#0 120613500#1 120613502 577248827#1 51265912#0 51265912#1 1121964959#2 E5 E9 E10 217451773#0 -526017777#1 -526016665 -548529065 536841066 526016662#0 526016662#2 526016640#0 -11917063#2 -1089407128#2 -15675745#2 -842455631 -603349777#1 75470557#1 284686652#0 284686647#0 547047274#0 547047277#0 28682875#0 284686651#0 547047228 15218593#0 68485346#0 68485346#6 284686646#2 284686646#5 1163561640#0 826204850#0 826204850#2 " />
<route id="1-55" edges="682608864#1 374528655 120613500#0 120613500#1 120613502 577248827#1 51265912#0 51265912#1 1121964959#2 E5 E9 E10 -821304189#1 -1111971585#4 -1111971585#2 -527458585#4 -527458585#4.48 -527458585#1 -4743764#3 374535325#0 1117202247#1 1139084789#0 1139084789#2 4803425 -683609958#5 -683609958#1 -683609958#0 -371342811#1 596514086#0 596514086#3 4803453#0 1007827873 41221165 170032532#1 170032532#2 71160126#0 " />
<route id="2-38" edges="-188867142#1 120613501 294148768 " />
<route id="2-46" edges="-188867142#1 120613501 294148769 294149881 374528655 120613500#0 120613500#1 120613502 577248827#1 51265912#0 51265912#1 1121964959#2 4730406#0 27014767 20020535#0 20020535#0.77 20020535#0.215 27014785#0 4730408#2 4687935#0 860373105#0 860373105#1 860373105#2 10750844#0 86145639#0 86145639#1 86145639#3 28128202#0 28128202#2 506653388#0 " />
<route id="2-47" edges="-188867142#1 120613501 294148769 294149881 374528655 4799417 1062629833 -596103315#2 -332455405#1 -92142139 -4398951#1 -548370032 -548370033#1 4730416#1 548370035#0 548370031#1 334810149#0 334810149#1 548370029 968872142#0 968872142#1 548370028 548370030#0 968872143 548370037#0 548370037#1 28767220#0 35162766#0 331553004#0 1078174821 942348910#0 -86145636#2 86145637#0 284105538 -543129619#2 " />
<route id="2-48" edges="-188867142#1 120613501 294148769 294149881 374528655 120613500#0 120613500#1 120613502 577248827#1 51265912#0 51265912#1 1121964959#2 4730406#0 27014767 20020535#0 20020535#0.77 20020535#0.215 27014785#0 4730408#2 4730409#0 377260491#0 " />
<route id="2-57-1" edges="-188867142#1 120613501 294148769 294149881 374528655 4799417 1062629833 -596103315#2 92142133 " />
<route id="2-57-2" edges="-188867142#1 120613501 294148769 294149881 374528655 4799417 1062629833 -596103315#2 -332455405#1 -92142139 -4398951#1 -548370032 -548370033#1 4730416#1 548370035#0 548370031#1 334810149#0 334810149#1 548370029 968872142#0 968872142#1 548370028 548370030#0 548370036 15801838#0 33694486#0 -26127384#2 " />
<route id="2-57-3" edges="-188867142#1 120613501 294148769 294149881 374528655 120613500#0 120613500#1 120613502 577248827#1 51265912#0 51265912#1 1121964959#2 4730406#0 27014767 20020535#0 20020535#0.77 E2 " />
<route id="2-57-4" edges="-188867142#1 120613501 294148769 294149881 374528655 120613500#0 120613500#1 120613502 577248827#1 51265912#0 51265912#1 1121964959#2 E5 E9 E10 217451773#0 -526017777#1 -526016665 -548529065 -5772448#2 " />
<route id="2-41" edges="-188867142#1 27410107#0 1167488601 4734972#0 32434222 4734976#0 461211027 461211028 577246823#0 4734974#0 145204590#0 145204590#2 423368254#0 423368254#2 146783879#0 43068084#0 601313558#0 147633771#0 559462254#0 " />
<route id="2-42" edges="-188867142#1 27410107#0 1167488601 4734972#0 32434222 4734976#0 461211027 461211028 577246823#0 4734974#0 145204590#0 145204590#2 423368254#0 423368254#2 146783879#0 43068084#0 601313557#0 12618874#0 12618874#0.130 549020386#0 549020386#1 534851512#0 147636160#0 11916106#0 722646198 147636174#0 147636167 147636167.115 33556413#0 33556413#1 69537613 374407128 828445693#1 15677654#0 77079364#0 77079366 77078537#0 41455289#0 4479820#0 " />
<route id="2-43" edges="-188867142#1 27410107#0 1167488601 4734972#0 32434222 4734976#0 461211027 461211028 577246823#0 4734974#0 145204590#0 145204590#2 423368254#0 423368254#2 146783879#0 43068084#0 601313558#0 147633771#0 11943595#0 1163500949#0 1113744422#2 4393002#2 4393002#7 4376120#0 198488290#0 198488290#1 198488290#4 522547661#0 5198100#0 " />
<route id="2-44" edges="-188867142#1 27410107#0 1167488601 4734972#0 32434222 4734976#0 461211027 461211028 577246823#0 4734974#0 145204590#0 145204590#2 423368254#0 423368254#2 146783879#0 43068084#0 601313557#0 12618874#0 12618874#0.130 549020386#0 549020386#1 534851512#0 147636160#0 11916106#0 722646198 147636174#0 147636167 147636167.115 33556413#0 33556413#1 69537613 854904053 374407129#2 27361348#0 601718666#0 313458176#0 582263960#0 " />
<route id="2-45" edges="-188867142#1 120613501 294148769 294149881 374528655 120613500#0 120613500#1 120613502 577248827#1 51265912#0 51265912#1 1121964959#2 4730406#0 27014767 20020535#0 20020535#0.77 20020535#0.215 27014785#0 4730408#2 4687935#0 860373105#0 860373105#1 860373105#2 10750844#0 86145639#0 86145639#1 86145639#3 565560611#0 14389891#0 14389891#4 1163569502#0 188708011 172222117#0 " />
<route id="2-58-1" edges="-188867142#1 27410107#0 1167488601 4734972#0 32434222 4734976#0 461211027 461211028 577246823#0 4734974#0 145204590#0 145204590#2 423368254#0 423368254#2 146783879#0 43068084#0 601313557#0 12618874#0 12618874#0.130 549020386#0 549020386#1 534851512#0 147636160#0 11916106#0 722646198 623570426#0 " />
<route id="2-58-2" edges="-188867142#1 27410107#0 1167488601 4734972#0 32434222 4734976#0 461211027 461211028 577246823#0 4734974#0 145204590#0 145204590#2 423368254#0 423368254#2 146783879#0 43068084#0 601313557#0 12618874#0 12618874#0.130 549020386#0 549020386#1 534851512#0 361876821 569781024 147692717#0 " />
<route id="2-58-3" edges="-188867142#1 27410107#0 1167488601 4734972#0 32434222 4734976#0 461211027 461211028 577246823#0 4734974#0 145204590#0 145204590#2 423368254#0 423368254#2 146783879#0 43068084#0 601313557#0 12618874#0 E0 " />
<route id="2-56" edges="-188867142#1 120613501 294148769 294149881 374528655 120613500#0 120613500#1 120613502 577248827#1 51265912#0 51265912#1 1121964959#2 E5 E9 E10 -821304189#1 -1111971585#4 -1111971585#2 -527458585#4 -527458585#4.48 -527458585#1 -4533227#5 -4533227#5.122 31261713#0 " />
<route id="2-59-1" edges="-188867142#1 120613501 294148769 294149881 374528655 120613500#0 120613500#1 120613502 577248827#1 51265912#0 51265912#1 1121964959#2 E5 E9 E10 -821304189#1 -1111971585#4 -1111971585#2 -527458585#4 E12 " />
<route id="2-59-2" edges="-188867142#1 120613501 294148769 294149881 374528655 120613500#0 120613500#1 120613502 577248827#1 51265912#0 51265912#1 1121964959#2 E5 E9 E10 -821304189#1 -1111971585#4 -1111971585#2 -527458585#4 -527458585#4.48 -527458585#1 -4743764#3 -4533225#7 -4533225#2 -313465295#6 4592655#0 " />
<route id="2-49" edges="-188867142#1 120613501 294148769 294149881 374528655 120613500#0 120613500#1 120613502 577248827#1 51265912#0 51265912#1 1121964959#2 E5 E9 E10 217451773#0 -526017777#1 -526016665 -548529065 536841066 526016662#0 526016662#2 526016640#0 -11917063#2 -1089407128#2 -15675745#2 -842455631 -603349777#1 5944806#0 30640436#0 30640436#1 976011959#0 507747915 5944799#1 32928276 -488736536#2 -73223940#1 -284105543#1 -548701322#1 -464916844#1 -464916844#0 -70748324#1 " />
<route id="2-50" edges="-188867142#1 120613501 294148769 294149881 374528655 120613500#0 120613500#1 120613502 577248827#1 51265912#0 51265912#1 1121964959#2 E5 E9 E10 217451773#0 -526017777#1 -526016665 -548529065 536841066 526016662#0 526016662#2 526016640#0 -11917063#2 -1089407128#2 -15675745#2 -842455631 -603349777#1 5944806#0 30640436#0 30640436#1 976011959#0 507747915 5944799#1 32928276 149246860#0 149246860#3 149246860#5 537731487#0 152419232#0 32928524#0 32928524#1 32928524#3 32928521#0 537731485#0 537731485#2 32928505 24596908#0 -820964111#5 -820964111#1 -172288344#4 -172288344#2 -172288344#1 " />
<route id="2-51" edges="-188867142#1 120613501 294148769 294149881 374528655 120613500#0 120613500#1 120613502 577248827#1 51265912#0 51265912#1 1121964959#2 E5 E9 E10 217451773#0 -526017777#1 -526016665 -548529065 536841066 526016662#0 526016662#2 526016640#0 -11917063#2 -1089407128#2 -15675745#2 -842455631 -603349777#1 5944806#0 30640436#0 30640436#1 976011959#0 507747915 5944799#1 32928276 149246860#0 149246860#3 149246860#5 537731487#0 152419232#0 24586241#0 147161796#0 822520818#1 27473985#0 " />
<route id="2-52" edges="-188867142#1 120613501 294148769 294149881 374528655 120613500#0 120613500#1 120613502 577248827#1 51265912#0 51265912#1 1121964959#2 E5 E9 E10 217451773#0 -526017777#1 -526016665 -548529065 536841066 526016662#0 526016662#2 526016640#0 -11917063#2 -1089407128#2 -15675745#2 -842455631 -603349777#1 75470557#1 284686652#0 284686647#0 547047274#0 547047277#0 28682875#0 27433876#0 27433876#5 5944797 -70748314#3 -26154816#2 -26154817#2 -15218556#10 -15218556#8 -15218556#7 -15218556#5 " />
<route id="2-53" edges="-188867142#1 120613501 294148769 294149881 374528655 120613500#0 120613500#1 120613502 577248827#1 51265912#0 51265912#1 1121964959#2 E5 E9 E10 217451773#0 -526017777#1 -526016665 -548529065 536841066 526016662#0 526016662#2 526016640#0 -11917063#2 -1089407128#2 -15675745#2 -842455631 -603349777#1 75470557#1 284686652#0 284686647#0 547047274#0 547047277#0 28682875#0 27433876#0 27433876#5 5944797 -70748314#3 -26154816#2 -26154817#2 -15218556#10 -15218556#8 -15218556#7 -73848804#18 -73848804#16 -73848804#14 -73848804#13 -73848804#11 -73848804#8 -73848804#4 -73848804#2 -583730162#1 5881719#0 " />
<route id="2-54" edges="-188867142#1 120613501 294148769 294149881 374528655 120613500#0 120613500#1 120613502 577248827#1 51265912#0 51265912#1 1121964959#2 E5 E9 E10 217451773#0 -526017777#1 -526016665 -548529065 536841066 526016662#0 526016662#2 526016640#0 -11917063#2 -1089407128#2 -15675745#2 -842455631 -603349777#1 75470557#1 284686652#0 284686647#0 547047274#0 547047277#0 28682875#0 284686651#0 547047228 15218593#0 68485346#0 68485346#6 284686646#2 284686646#5 1163561640#0 826204850#0 826204850#2 " />
<route id="2-55" edges="-188867142#1 120613501 294148769 294149881 374528655 120613500#0 120613500#1 120613502 577248827#1 51265912#0 51265912#1 1121964959#2 E5 E9 E10 -821304189#1 -1111971585#4 -1111971585#2 -527458585#4 -527458585#4.48 -527458585#1 -4743764#3 374535325#0 1117202247#1 1139084789#0 1139084789#2 4803425 -683609958#5 -683609958#1 -683609958#0 -371342811#1 596514086#0 596514086#3 4803453#0 1007827873 41221165 170032532#1 170032532#2 71160126#0 " />
<route id="3-38" edges="593077123#0 120613501 294148768 " />
<route id="3-46" edges="593077123#0 120613501 294148769 294149881 374528655 120613500#0 120613500#1 120613502 577248827#1 51265912#0 51265912#1 1121964959#2 4730406#0 27014767 20020535#0 20020535#0.77 20020535#0.215 27014785#0 4730408#2 4687935#0 860373105#0 860373105#1 860373105#2 10750844#0 86145639#0 86145639#1 86145639#3 28128202#0 28128202#2 506653388#0 " />
<route id="3-47" edges="593077123#0 120613501 294148769 294149881 374528655 4799417 1062629833 -596103315#2 -332455405#1 -92142139 -4398951#1 -548370032 -548370033#1 4730416#1 548370035#0 548370031#1 334810149#0 334810149#1 548370029 968872142#0 968872142#1 548370028 548370030#0 968872143 548370037#0 548370037#1 28767220#0 35162766#0 331553004#0 1078174821 942348910#0 -86145636#2 86145637#0 284105538 -543129619#2 " />
<route id="3-48" edges="593077123#0 120613501 294148769 294149881 374528655 120613500#0 120613500#1 120613502 577248827#1 51265912#0 51265912#1 1121964959#2 4730406#0 27014767 20020535#0 20020535#0.77 20020535#0.215 27014785#0 4730408#2 4730409#0 377260491#0 " />
<route id="3-57-1" edges="593077123#0 120613501 294148769 294149881 374528655 4799417 1062629833 -596103315#2 92142133 " />
<route id="3-57-2" edges="593077123#0 120613501 294148769 294149881 374528655 4799417 1062629833 -596103315#2 -332455405#1 -92142139 -4398951#1 -548370032 -548370033#1 4730416#1 548370035#0 548370031#1 334810149#0 334810149#1 548370029 968872142#0 968872142#1 548370028 548370030#0 548370036 15801838#0 33694486#0 -26127384#2 " />
<route id="3-57-3" edges="593077123#0 120613501 294148769 294149881 374528655 120613500#0 120613500#1 120613502 577248827#1 51265912#0 51265912#1 1121964959#2 4730406#0 27014767 20020535#0 20020535#0.77 E2 " />
<route id="3-57-4" edges="593077123#0 120613501 294148769 294149881 374528655 120613500#0 120613500#1 120613502 577248827#1 51265912#0 51265912#1 1121964959#2 E5 E9 E10 217451773#0 -526017777#1 -526016665 -548529065 -5772448#2 " />
<route id="3-41" edges="593077123#0 120613501 294148769 294149881 374528655 4799417 1062629833 -596103315#2 -627360923 136617339#0 532158278#0 549356141#0 549356141#1 532158277#0 423368254#0 423368254#2 146783879#0 43068084#0 601313558#0 147633771#0 559462254#0 " />
<route id="3-42" edges="593077123#0 120613501 294148769 294149881 374528655 4799417 1062629833 -596103315#2 -627360923 136617339#0 532158278#0 549356141#0 549356141#1 532158277#0 423368254#0 423368254#2 146783879#0 43068084#0 601313557#0 12618874#0 12618874#0.130 549020386#0 549020386#1 534851512#0 147636160#0 11916106#0 722646198 147636174#0 147636167 147636167.115 33556413#0 33556413#1 69537613 374407128 828445693#1 15677654#0 77079364#0 77079366 77078537#0 41455289#0 4479820#0 " />
<route id="3-43" edges="593077123#0 120613501 294148769 294149881 374528655 4799417 1062629833 -596103315#2 -627360923 136617339#0 532158278#0 549356141#0 549356141#1 532158277#0 423368254#0 423368254#2 146783879#0 43068084#0 601313558#0 147633771#0 11943595#0 1163500949#0 1113744422#2 4393002#2 4393002#7 4376120#0 198488290#0 198488290#1 198488290#4 522547661#0 5198100#0 " />
<route id="3-44" edges="593077123#0 120613501 294148769 294149881 374528655 4799417 1062629833 -596103315#2 -627360923 136617339#0 532158278#0 549356141#0 549356141#1 532158277#0 423368254#0 423368254#2 146783879#0 43068084#0 601313557#0 12618874#0 12618874#0.130 549020386#0 549020386#1 534851512#0 147636160#0 11916106#0 722646198 147636174#0 147636167 147636167.115 33556413#0 33556413#1 69537613 854904053 374407129#2 27361348#0 601718666#0 313458176#0 582263960#0 " />
<route id="3-45" edges="593077123#0 120613501 294148769 294149881 374528655 120613500#0 120613500#1 120613502 577248827#1 51265912#0 51265912#1 1121964959#2 4730406#0 27014767 20020535#0 20020535#0.77 20020535#0.215 27014785#0 4730408#2 4687935#0 860373105#0 860373105#1 860373105#2 10750844#0 86145639#0 86145639#1 86145639#3 565560611#0 14389891#0 14389891#4 1163569502#0 188708011 172222117#0 " />
<route id="3-58-1" edges="593077123#0 120613501 294148769 294149881 374528655 4799417 1062629833 -596103315#2 -627360923 136617339#0 532158278#0 549356141#0 549356141#1 532158277#0 423368254#0 423368254#2 146783879#0 43068084#0 601313557#0 12618874#0 12618874#0.130 549020386#0 549020386#1 534851512#0 147636160#0 11916106#0 722646198 623570426#0 " />
<route id="3-58-2" edges="593077123#0 120613501 294148769 294149881 374528655 4799417 1062629833 -596103315#2 -627360923 136617339#0 532158278#0 549356141#0 549356141#1 532158277#0 423368254#0 423368254#2 146783879#0 43068084#0 601313557#0 12618874#0 12618874#0.130 549020386#0 549020386#1 534851512#0 361876821 569781024 147692717#0 " />
<route id="3-58-3" edges="593077123#0 120613501 294148769 294149881 374528655 4799417 1062629833 -596103315#2 -627360923 136617339#0 532158278#0 549356141#0 549356141#1 532158277#0 423368254#0 423368254#2 146783879#0 43068084#0 601313557#0 12618874#0 E0 " />
<route id="3-56" edges="593077123#0 120613501 294148769 294149881 374528655 120613500#0 120613500#1 120613502 577248827#1 51265912#0 51265912#1 1121964959#2 E5 E9 E10 -821304189#1 -1111971585#4 -1111971585#2 -527458585#4 -527458585#4.48 -527458585#1 -4533227#5 -4533227#5.122 31261713#0 " />
<route id="3-59-1" edges="593077123#0 120613501 294148769 294149881 374528655 120613500#0 120613500#1 120613502 577248827#1 51265912#0 51265912#1 1121964959#2 E5 E9 E10 -821304189#1 -1111971585#4 -1111971585#2 -527458585#4 E12 " />
<route id="3-59-2" edges="593077123#0 120613501 294148769 294149881 374528655 120613500#0 120613500#1 120613502 577248827#1 51265912#0 51265912#1 1121964959#2 E5 E9 E10 -821304189#1 -1111971585#4 -1111971585#2 -527458585#4 -527458585#4.48 -527458585#1 -4743764#3 -4533225#7 -4533225#2 -313465295#6 4592655#0 " />
<route id="3-49" edges="593077123#0 120613501 294148769 294149881 374528655 120613500#0 120613500#1 120613502 577248827#1 51265912#0 51265912#1 1121964959#2 E5 E9 E10 217451773#0 -526017777#1 -526016665 -548529065 536841066 526016662#0 526016662#2 526016640#0 -11917063#2 -1089407128#2 -15675745#2 -842455631 -603349777#1 5944806#0 30640436#0 30640436#1 976011959#0 507747915 5944799#1 32928276 -488736536#2 -73223940#1 -284105543#1 -548701322#1 -464916844#1 -464916844#0 -70748324#1 " />
<route id="3-50" edges="593077123#0 120613501 294148769 294149881 374528655 120613500#0 120613500#1 120613502 577248827#1 51265912#0 51265912#1 1121964959#2 E5 E9 E10 217451773#0 -526017777#1 -526016665 -548529065 536841066 526016662#0 526016662#2 526016640#0 -11917063#2 -1089407128#2 -15675745#2 -842455631 -603349777#1 5944806#0 30640436#0 30640436#1 976011959#0 507747915 5944799#1 32928276 149246860#0 149246860#3 149246860#5 537731487#0 152419232#0 32928524#0 32928524#1 32928524#3 32928521#0 537731485#0 537731485#2 32928505 24596908#0 -820964111#5 -820964111#1 -172288344#4 -172288344#2 -172288344#1 " />
<route id="3-51" edges="593077123#0 120613501 294148769 294149881 374528655 120613500#0 120613500#1 120613502 577248827#1 51265912#0 51265912#1 1121964959#2 E5 E9 E10 217451773#0 -526017777#1 -526016665 -548529065 536841066 526016662#0 526016662#2 526016640#0 -11917063#2 -1089407128#2 -15675745#2 -842455631 -603349777#1 5944806#0 30640436#0 30640436#1 976011959#0 507747915 5944799#1 32928276 149246860#0 149246860#3 149246860#5 537731487#0 152419232#0 24586241#0 147161796#0 822520818#1 27473985#0 " />
<route id="3-52" edges="593077123#0 120613501 294148769 294149881 374528655 120613500#0 120613500#1 120613502 577248827#1 51265912#0 51265912#1 1121964959#2 E5 E9 E10 217451773#0 -526017777#1 -526016665 -548529065 536841066 526016662#0 526016662#2 526016640#0 -11917063#2 -1089407128#2 -15675745#2 -842455631 -603349777#1 75470557#1 284686652#0 284686647#0 547047274#0 547047277#0 28682875#0 27433876#0 27433876#5 5944797 -70748314#3 -26154816#2 -26154817#2 -15218556#10 -15218556#8 -15218556#7 -15218556#5 " />
<route id="3-53" edges="593077123#0 120613501 294148769 294149881 374528655 120613500#0 120613500#1 120613502 577248827#1 51265912#0 51265912#1 1121964959#2 E5 E9 E10 217451773#0 -526017777#1 -526016665 -548529065 536841066 526016662#0 526016662#2 526016640#0 -11917063#2 -1089407128#2 -15675745#2 -842455631 -603349777#1 75470557#1 284686652#0 284686647#0 547047274#0 547047277#0 28682875#0 27433876#0 27433876#5 5944797 -70748314#3 -26154816#2 -26154817#2 -15218556#10 -15218556#8 -15218556#7 -73848804#18 -73848804#16 -73848804#14 -73848804#13 -73848804#11 -73848804#8 -73848804#4 -73848804#2 -583730162#1 5881719#0 " />
<route id="3-54" edges="593077123#0 120613501 294148769 294149881 374528655 120613500#0 120613500#1 120613502 577248827#1 51265912#0 51265912#1 1121964959#2 E5 E9 E10 217451773#0 -526017777#1 -526016665 -548529065 536841066 526016662#0 526016662#2 526016640#0 -11917063#2 -1089407128#2 -15675745#2 -842455631 -603349777#1 75470557#1 284686652#0 284686647#0 547047274#0 547047277#0 28682875#0 284686651#0 547047228 15218593#0 68485346#0 68485346#6 284686646#2 284686646#5 1163561640#0 826204850#0 826204850#2 " />
<route id="3-55" edges="593077123#0 120613501 294148769 294149881 374528655 120613500#0 120613500#1 120613502 577248827#1 51265912#0 51265912#1 1121964959#2 E5 E9 E10 -821304189#1 -1111971585#4 -1111971585#2 -527458585#4 -527458585#4.48 -527458585#1 -4743764#3 374535325#0 1117202247#1 1139084789#0 1139084789#2 4803425 -683609958#5 -683609958#1 -683609958#0 -371342811#1 596514086#0 596514086#3 4803453#0 1007827873 41221165 170032532#1 170032532#2 71160126#0 " />
<route id="4-38" edges="-560707572#2 136124103 198426622 4389421#0 37684124#0 35164367 595805217 294148768 " />
<route id="4-46" edges="-560707572#2 136124103 198426622 4389421#0 27410182#0 120613502 577248827#1 51265912#0 51265912#1 1121964959#2 4730406#0 27014767 20020535#0 20020535#0.77 20020535#0.215 27014785#0 4730408#2 4687935#0 860373105#0 860373105#1 860373105#2 10750844#0 86145639#0 86145639#1 86145639#3 28128202#0 28128202#2 506653388#0 " />
<route id="4-47" edges="-560707572#2 136124103 198426622 4389421#0 27410182#0 120613502 577248827#1 51265912#0 51265912#1 1121964959#2 4730406#0 27014767 20020535#0 20020535#0.77 20020535#0.215 27014785#0 4730408#2 4687935#0 860373105#0 860373105#1 860373105#2 -86145636#2 86145637#0 284105538 -543129619#2 " />
<route id="4-48" edges="-560707572#2 136124103 198426622 4389421#0 27410182#0 120613502 577248827#1 51265912#0 51265912#1 1121964959#2 4730406#0 27014767 20020535#0 20020535#0.77 20020535#0.215 27014785#0 4730408#2 4730409#0 377260491#0 " />
<route id="4-57-1" edges="-560707572#2 136124103 4748724#0 -5771348#2 1167488601 4734972#0 32434222 4734976#0 146545817#0 601313541 571372263#0 35162947#0 -332455405#1 -92142139 -4398951#1 -146778067#1 " />
<route id="4-57-2" edges="-560707572#2 136124103 4748724#0 -5771348#2 1167488601 4734972#0 32434222 4734976#0 146545817#0 601313541 571372263#0 35162947#0 -332455405#1 -92142139 -4398951#1 -548370032 -548370033#1 4730416#1 548370035#0 548370031#1 334810149#0 334810149#1 548370029 968872142#0 968872142#1 548370028 548370030#0 548370036 15801838#0 33694486#0 -26127384#2 " />
<route id="4-57-3" edges="-560707572#2 136124103 198426622 4389421#0 27410182#0 120613502 577248827#1 51265912#0 51265912#1 1121964959#2 4730406#0 27014767 20020535#0 20020535#0.77 E2 " />