<?xml version="1.0" encoding="UTF-8"?>

<!-- generated on 2026-03-19 15:12:57 by Eclipse SUMO netedit Version 1.22.0
<neteditConfiguration xmlns:xsi="http://www.w3.org/2001/XMLSchema-instance" xsi:noNamespaceSchemaLocation="http://sumo.dlr.de/xsd/neteditConfiguration.xsd">

    <input>
        <sumo-net-file value="/Users/babashermit/Downloads/correctplease-2/aaa_simulation_file_folder_actuated/merged2.net.xml"/>
    </input>

    <output>
        <output-file value="/Users/babashermit/Downloads/correctplease-2/aaa_simulation_file_folder_actuated/merged2.net.xml"/>
    </output>

    <processing>
        <geometry.min-radius.fix.railways value="false"/>
        <geometry.max-grade.fix value="false"/>
        <offset.disable-normalization value="true"/>
        <lefthand value="0"/>
    </processing>

    <building_defaults>
        <default.spreadtype value="roadCenter"/>
    </building_defaults>

    <tls_building>
        <tls.ignore-internal-junction-jam value="1"/>
    </tls_building>

    <junctions>
        <no-internal-links value="true"/>
        <no-turnarounds value="true"/>
        <junctions.corner-detail value="5"/>
        <junctions.limit-turn-speed value="5.50"/>
        <rectangular-lane-cut value="0"/>
    </junctions>

    <pedestrian>
        <walkingareas value="0"/>
    </pedestrian>

</neteditConfiguration>
-->

<net version="1.20" spreadType="roadCenter" junctionCornerDetail="5" limitTurnSpeed="5.50" tlsIgnoreInternalJunctionJam="1" xmlns:xsi="http://www.w3.org/2001/XMLSchema-instance" xsi:noNamespaceSchemaLocation="http://sumo.dlr.de/xsd/net_file.xsd">

    <location netOffset="-453384.27,-5237669.48" convBoundary="9543.91,5228.37,13454.82,11765.97" origBoundary="8.382473,47.291670,8.740072,47.508391" projParameter="+proj=utm +zone=32 +ellps=WGS84 +datum=WGS84 +units=m +no_defs"/>

    <type id="highway.living_street" priority="3" numLanes="1" speed="6.85" oneway="0"/>
    <type id="highway.primary" priority="12" numLanes="2" speed="13.90" oneway="0" width="3.20"/>
    <type id="highway.residential" priority="3" numLanes="1" speed="6.85" oneway="0" width="2.70"/>
    <type id="highway.secondary" priority="11" numLanes="1" speed="13.89" oneway="0" width="3.20"/>
    <type id="highway.secondary_link" priority="6" numLanes="1" speed="13.80" oneway="0" width="3.20"/>
    <type id="highway.tertiary" priority="10" numLanes="1" speed="13.80" oneway="0" width="3.20"/>
    <type id="highway.unclassified" priority="4" numLanes="1" speed="6.85" oneway="0"/>
    <type id="railway.tram" priority="17" numLanes="1" speed="13.89" allow="tram" oneway="1"/>

    <edge id="-1007827874#1" from="316677693" to="455526" priority="12" type="highway.primary" spreadType="roadCenter" shape="10389.88,9752.41 10349.80,9693.42 10344.19,9684.17">
        <lane id="-1007827874#1_0" index="0" disallow="tram" speed="13.89" length="82.14" width="3.20" shape="10384.99,9750.90 10347.11,9695.15 10345.28,9692.14">
            <param key="origId" value="1007827874"/>
        </lane>
        <lane id="-1007827874#1_1" index="1" disallow="tram" speed="13.89" length="82.14" width="3.20" shape="10387.63,9749.10 10349.80,9693.42 10348.02,9690.48">
            <param key="origId" value="1007827874"/>
        </lane>
        <param key="ref" value="3;4"/>
    </edge>
    <edge id="-1011249147#0" from="28587330" to="5682256138" priority="5" type="highway.residential" spreadType="roadCenter">
        <lane id="-1011249147#0_0" index="0" disallow="tram" speed="8.33" length="16.68" width="2.70" shape="10931.34,9375.40 10925.07,9369.97">
            <param key="origId" value="1011249147"/>
        </lane>
    </edge>
    <edge id="-1037128391#1" from="47775362" to="130114008" priority="10" type="highway.tertiary" spreadType="roadCenter" shape="10189.47,9007.77 10198.20,8997.02 10226.83,8956.86 10234.47,8946.15 10239.30,8939.38">
        <lane id="-1037128391#1_0" index="0" disallow="tram" speed="13.89" length="84.64" width="3.20" shape="10193.95,8999.71 10196.93,8996.05 10225.53,8955.93 10233.17,8945.22 10236.22,8940.95">
            <param key="origId" value="1037128391 24586239"/>
        </lane>
    </edge>
    <edge id="-1037128393#0" from="571203142" to="130117368" priority="10" type="highway.tertiary" spreadType="roadCenter" shape="10297.11,8849.85 10314.16,8820.34 10320.47,8809.43 10326.66,8798.72">
        <lane id="-1037128393#0_0" index="0" disallow="tram" speed="13.89" length="59.05" width="3.20" shape="10297.23,8846.44 10312.77,8819.54 10319.08,8808.63 10321.49,8804.47">
            <param key="origId" value="1037128393 1037128392"/>
        </lane>
    </edge>
    <edge id="-1037128394#0" from="104319425" to="571203142" priority="10" type="highway.tertiary" spreadType="roadCenter" shape="10284.39,8869.92 10287.46,8865.16 10292.72,8856.99 10297.11,8849.85">
        <lane id="-1037128394#0_0" index="0" disallow="tram" speed="13.89" length="23.76" width="3.20" shape="10284.87,8866.23 10286.11,8864.29 10291.37,8856.14 10294.38,8851.23">
            <param key="origId" value="1037128394 1037128393"/>
        </lane>
    </edge>
    <edge id="-10414497#1" from="89008560" to="cluster26886978_J37_J38" priority="5" type="highway.residential" spreadType="roadCenter" shape="11670.43,8551.41 11677.25,8556.05 11682.13,8559.64 11695.16,8569.78 11697.18,8571.46 11708.74,8581.68 11728.39,8601.36 11735.76,8606.89">
        <lane id="-10414497#1_0" index="0" allow="bus bicycle tram" speed="8.33" length="83.03" width="2.70" shape="11674.32,8550.79 11678.81,8553.85 11683.76,8557.49 11696.83,8567.66 11698.94,8569.41 11710.59,8579.71 11730.50,8599.65">
            <param key="origId" value="10414497 149233859 149233866"/>
        </lane>
        <param key="layer" value="1"/>
    </edge>
    <edge id="-10414497#2" from="cluster89010597_J39_J40" to="89008560" priority="5" type="highway.residential" spreadType="roadCenter" shape="11635.38,8526.47 11642.36,8531.31 11670.43,8551.41">
        <lane id="-10414497#2_0" index="0" allow="bus bicycle tram" speed="8.33" length="43.14" width="2.70" shape="11638.82,8525.57 11643.92,8529.10 11669.62,8547.51">
            <param key="origId" value="10414497"/>
        </lane>
        <param key="layer" value="1"/>
    </edge>
    <edge id="-10418400#3" from="88993783" to="clusterJ35_J36_cluster_5255883857_88993792" priority="3" type="highway.residential" spreadType="roadCenter" shape="11229.80,8721.87 11246.56,8734.82 11258.11,8744.92 11286.43,8771.86 11292.80,8777.50">
        <lane id="-10418400#3_0" index="0" disallow="all" speed="8.33" length="84.99" width="2.70" shape="11233.07,8722.69 11247.42,8733.78 11259.02,8743.92 11287.34,8770.87 11287.98,8771.43">
            <param key="origId" value="10418400"/>
        </lane>
        <param key="origTo" value="5255883857"/>
    </edge>
    <edge id="-1042405420#1" from="clusterJ69_J70_cluster_44850081_5715288102" to="cluster_5080753537_9652255873" priority="3" type="highway.residential" spreadType="roadCenter" shape="12512.47,8811.64 12520.42,8821.88 12570.25,8902.26 12590.09,8933.54 12593.09,8938.66 12603.22,8955.07 12606.60,8960.09 12614.74,8969.46 12625.87,8978.65 12642.36,8987.57 12665.55,8998.87 12671.52,9001.73">
        <lane id="-1042405420#1_0" index="0" disallow="all" speed="8.33" length="259.96" width="2.70" shape="12516.92,8815.17 12521.53,8821.11 12571.39,8901.54 12591.24,8932.84 12594.25,8937.96 12604.35,8954.34 12607.67,8959.27 12615.69,8968.49 12626.63,8977.53 12642.98,8986.37 12666.14,8997.66 12676.88,9002.80">
            <param key="origId" value="1042405420 5772335 5772335"/>
        </lane>
        <param key="origFrom" value="44850081"/>
        <param key="origTo" value="9652255873"/>
    </edge>
    <edge id="-1056215011#1" from="1275794024" to="89008756" priority="3" type="highway.residential" spreadType="roadCenter" shape="11694.56,8501.54 11722.83,8445.89 11725.41,8440.82">
        <lane id="-1056215011#1_0" index="0" disallow="all" speed="8.33" length="68.11" width="2.70" shape="11694.03,8499.61 11721.63,8445.28 11722.25,8444.06">
            <param key="origId" value="1056215011"/>
        </lane>
    </edge>
    <edge id="-1056324193#1" from="30795581" to="26889117" priority="3" type="highway.residential" spreadType="roadCenter" shape="11662.17,8784.16 11706.07,8737.33 11710.79,8732.20">
        <lane id="-1056324193#1_0" index="0" disallow="all" speed="13.89" length="71.16" width="2.70" shape="11664.40,8779.80 11705.08,8736.41 11708.29,8732.92">
            <param key="origId" value="1056324193"/>
        </lane>
    </edge>
    <edge id="-10594647#3" from="92489491" to="28961398" priority="3" type="highway.residential" spreadType="roadCenter" shape="11881.79,8482.53 11873.94,8480.38 11869.84,8479.33 11833.12,8469.12 11822.73,8466.09">
        <lane id="-10594647#3_0" index="0" disallow="all" speed="13.89" length="61.31" width="2.70" shape="11881.30,8483.80 11873.59,8481.68 11869.49,8480.63 11832.75,8470.42 11827.90,8469.00">
            <param key="origId" value="10594647"/>
        </lane>
    </edge>
    <edge id="-1068811627" from="88998467" to="38439578" priority="3" type="highway.residential" spreadType="roadCenter" shape="11298.09,8651.16 11311.33,8637.29 11314.72,8633.75 11320.32,8625.89">
        <lane id="-1068811627_0" index="0" disallow="all" speed="8.33" length="33.73" width="2.70" shape="11298.82,8648.44 11310.35,8636.36 11313.68,8632.89 11315.26,8630.66">
            <param key="origId" value="1068811627 10418321"/>
        </lane>
    </edge>
    <edge id="-10750844#1" from="29798701" to="29798700" priority="10" type="highway.tertiary" spreadType="roadCenter" shape="11428.12,8645.73 11424.67,8653.02 11420.98,8659.79 11417.32,8665.40 11413.69,8670.15 11407.83,8677.05">
        <lane id="-10750844#1_0" index="0" speed="13.89" length="37.50" width="3.20" shape="11427.99,8649.75 11426.10,8653.75 11422.35,8660.61 11418.63,8666.32 11414.94,8671.15 11413.89,8672.39">
            <param key="origId" value="10750844"/>
        </lane>
    </edge>
    <edge id="-10755051" from="283458356" to="4284082380" priority="10" type="highway.tertiary" spreadType="roadCenter" shape="11647.46,9357.10 11602.45,9373.52 11590.05,9378.02 11580.96,9382.00 11574.71,9385.41">
        <lane id="-10755051_0" index="0" allow="bus" speed="8.33" length="78.15" width="3.20" shape="11646.78,9359.05 11603.00,9375.02 11590.64,9379.51 11581.67,9383.44 11576.70,9386.15">
            <param key="origId" value="10755051 429288348"/>
        </lane>
    </edge>
    <edge id="-1089407128#2" from="631161268" to="27256991" priority="10" type="highway.tertiary" spreadType="roadCenter" shape="11122.41,9020.78 11095.81,9014.10 11081.34,9010.86 11080.20,9010.60">
        <lane id="-1089407128#2_0" index="0" disallow="tram" speed="13.89" length="43.42" width="3.20" shape="11117.37,9024.46 11094.70,9018.77 11088.87,9017.46">
            <param key="origId" value="1089407128"/>
        </lane>
        <lane id="-1089407128#2_1" index="1" disallow="tram" speed="13.89" length="43.42" width="3.20" shape="11118.15,9021.36 11095.44,9015.66 11089.58,9014.34">
            <param key="origId" value="1089407128"/>
        </lane>
    </edge>
    <edge id="-1111971585#2" from="30230049" to="318314466" priority="10" type="highway.tertiary" spreadType="roadCenter" shape="11424.85,9515.74 11407.51,9531.71 11388.09,9549.62 11381.82,9555.26">
        <lane id="-1111971585#2_0" index="0" disallow="tram" speed="13.89" length="58.42" width="3.20" shape="11423.76,9518.92 11408.59,9532.89 11389.17,9550.80 11385.96,9553.69">
            <param key="origId" value="1111971585"/>
        </lane>
    </edge>
    <edge id="-1111971585#4" from="5534714077" to="30230049" priority="10" type="highway.tertiary" spreadType="roadCenter" shape="11453.11,9489.68 11432.42,9508.75 11424.85,9515.74">
        <lane id="-1111971585#4_0" index="0" disallow="tram" speed="13.89" length="38.44" width="3.20" shape="11451.25,9493.57 11433.50,9509.93 11427.95,9515.05">
            <param key="origId" value="1111971585"/>
        </lane>
    </edge>
    <edge id="-1113744422#1" from="1622616952" to="clusterJ67_J68_cluster_27028543_5183760624" priority="10" type="highway.tertiary" spreadType="roadCenter" shape="12658.51,8602.64 12621.74,8647.02 12585.48,8690.51 12581.95,8694.73 12572.40,8706.18 12568.36,8710.74 12565.49,8713.96 12563.01,8716.50 12558.79,8720.65">
        <lane id="-1113744422#1_0" index="0" disallow="pedestrian rail_fast" speed="13.89" length="159.16" width="3.20" shape="12655.22,8609.12 12622.97,8648.04 12586.71,8691.53 12583.18,8695.76 12573.61,8707.22 12569.56,8711.80 12566.66,8715.05 12564.76,8717.00">
            <param key="origId" value="1113744422 1113744422 1163500949 1163500949"/>
        </lane>
        <param key="origTo" value="27028543"/>
    </edge>
    <edge id="-1117202247#0" from="29798654" to="28137428" priority="10" type="highway.tertiary" spreadType="roadCenter" shape="11070.16,9714.33 11075.45,9710.25 11135.45,9666.07 11147.75,9656.48 11159.63,9647.55 11166.70,9641.65">
        <lane id="-1117202247#0_0" index="0" disallow="tram" speed="13.89" length="120.86" width="3.20" shape="11074.54,9708.94 11134.48,9664.79 11146.78,9655.21 11158.64,9646.30 11159.73,9645.38">
            <param key="origId" value="1117202247 374535325"/>
        </lane>
    </edge>
    <edge id="-1117202247#3" from="28137447" to="29798654" priority="10" type="highway.tertiary" spreadType="roadCenter" shape="10963.96,9793.27 10971.47,9787.49 10982.25,9779.46 11007.57,9760.71 11070.16,9714.33">
        <lane id="-1117202247#3_0" index="0" disallow="tram" speed="13.89" length="132.33" width="3.20" shape="10969.78,9786.78 10970.50,9786.21 10981.30,9778.17 11006.62,9759.42 11063.82,9717.03">
            <param key="origId" value="1117202247"/>
        </lane>
    </edge>
    <edge id="-1121964954#1" from="2946358808" to="1600183703" priority="3" type="highway.residential" spreadType="roadCenter" shape="11955.25,9397.66 11956.66,9393.29 11958.33,9388.17">
        <lane id="-1121964954#1_0" index="0" disallow="all" speed="8.33" length="9.98" width="2.70" shape="11954.23,9396.41 11955.38,9392.87 11956.21,9390.31">
            <param key="origId" value="1121964954"/>
        </lane>
    </edge>
    <edge id="-1121969437#2" from="10261768650" to="283458334" priority="3" type="highway.living_street" spreadType="roadCenter" shape="11701.85,9526.38 11696.29,9524.09 11692.83,9519.52 11688.05,9513.20 11687.13,9508.49">
        <lane id="-1121969437#2_0" index="0" disallow="all" speed="5.56" length="28.32" shape="11702.12,9528.22 11695.28,9525.40 11691.55,9520.49 11686.55,9513.87 11685.87,9510.39">
            <param key="origId" value="1121969437"/>
        </lane>
    </edge>
    <edge id="-1137649511#3" from="26678670" to="27587740" priority="3" type="highway.residential" spreadType="roadCenter" shape="12825.50,8099.72 12828.11,8096.54 12845.48,8075.49 12846.46,8074.30 12860.28,8057.55">
        <lane id="-1137649511#3_0" index="0" disallow="all" speed="8.33" length="54.66" width="2.70" shape="12825.46,8097.64 12827.07,8095.68 12844.44,8074.63 12845.42,8073.44 12857.53,8058.76">
            <param key="origId" value="1137649511"/>
        </lane>
    </edge>
    <edge id="-1139084789#1" from="347339990" to="28137447" priority="10" type="highway.tertiary" spreadType="roadCenter" shape="10858.15,9875.31 10904.76,9839.84 10945.77,9807.48 10954.60,9800.51 10963.96,9793.27">
        <lane id="-1139084789#1_0" index="0" disallow="tram" speed="13.89" length="133.89" width="3.20" shape="10859.59,9872.20 10903.78,9838.58 10944.78,9806.22 10953.61,9799.25 10956.19,9797.26">
            <param key="origId" value="1139084789"/>
        </lane>
    </edge>
    <edge id="-1139084789#3" from="315269393" to="347339990" priority="10" type="highway.tertiary" spreadType="roadCenter" shape="10820.24,9905.24 10828.88,9898.68 10858.15,9875.31">
        <lane id="-1139084789#3_0" index="0" disallow="tram" speed="13.89" length="48.30" width="3.20" shape="10822.46,9901.54 10827.90,9897.42 10855.00,9875.78">
            <param key="origId" value="1139084789"/>
        </lane>
    </edge>
    <edge id="-1163529329" from="1638473942" to="3962734307" priority="11" type="highway.secondary" spreadType="roadCenter">
        <lane id="-1163529329_0" index="0" disallow="pedestrian rail_fast" speed="13.89" length="15.36" width="3.20" shape="12423.19,8106.33 12431.41,8112.08">
            <param key="origId" value="1163529329"/>
        </lane>
    </edge>
    <edge id="-1163544455#1" from="34669944" to="1388651190" priority="10" type="highway.tertiary" spreadType="roadCenter" shape="11186.99,8553.18 11192.54,8556.28 11211.54,8566.54 11281.50,8604.31">
        <lane id="-1163544455#1_0" index="0" disallow="tram" speed="8.33" length="107.45" width="3.20" shape="11190.74,8553.44 11193.31,8554.88 11212.30,8565.13 11278.76,8601.01">
            <param key="origId" value="1163544455 1163544455 284105538"/>
        </lane>
    </edge>
    <edge id="-1163565847#2" from="34646953" to="1735642733" priority="3" type="highway.residential" spreadType="roadCenter" shape="11596.49,8379.20 11593.03,8386.53 11590.99,8390.62 11580.23,8411.89 11574.30,8423.63 11570.70,8431.29 11568.31,8435.74 11549.83,8473.64 11548.92,8475.53">
        <lane id="-1163565847#2_0" index="0" disallow="all" speed="8.33" length="107.44" width="2.70" shape="11595.90,8383.60 11594.25,8387.12 11592.20,8391.23 11581.43,8412.50 11575.51,8424.22 11571.91,8431.90 11569.51,8436.36 11551.04,8474.23 11550.49,8475.37">
            <param key="origId" value="1163565847 1163565847 112168940 112168940 112168955 112168955"/>
        </lane>
    </edge>
    <edge id="-1163569502#1" from="29798703" to="10821411458" priority="10" type="highway.tertiary" spreadType="roadCenter" shape="11651.69,8100.92 11646.04,8111.56 11622.47,8157.97">
        <lane id="-1163569502#1_0" index="0" disallow="pedestrian rail_fast" speed="8.33" length="64.10" width="3.20" shape="11648.55,8113.69 11627.13,8155.85">
            <param key="origId" value="1163569502"/>
        </lane>
    </edge>
    <edge id="-11662745#2" from="47775250" to="47775268" priority="3" type="highway.residential" spreadType="roadCenter" shape="9677.57,9508.91 9720.79,9473.43 9742.79,9456.23 9748.61,9451.30">
        <lane id="-11662745#2_0" index="0" disallow="all" speed="8.33" length="91.47" width="2.70" shape="9680.07,9505.11 9719.95,9472.38 9741.94,9455.18 9744.37,9453.12">
            <param key="origId" value="11662745"/>
        </lane>
    </edge>
    <edge id="-11663107#1" from="104304010" to="104303882" priority="3" type="highway.residential" spreadType="roadCenter" shape="9964.68,9377.85 9959.73,9384.23 9896.65,9459.79">
        <lane id="-11663107#1_0" index="0" disallow="all" speed="8.33" length="106.50" width="2.70" shape="9963.11,9382.07 9960.78,9385.08 9900.60,9457.16">
            <param key="origId" value="11663107"/>
        </lane>
    </edge>
    <edge id="-11663107#3" from="473403330" to="104304010" priority="3" type="highway.residential" spreadType="roadCenter" shape="9993.29,9342.45 9968.47,9372.98 9964.68,9377.85">
        <lane id="-11663107#3_0" index="0" disallow="all" speed="8.33" length="45.52" width="2.70" shape="9991.74,9346.50 9969.53,9373.82 9968.38,9375.29">
            <param key="origId" value="11663107"/>
        </lane>
    </edge>
    <edge id="-11663107#5" from="73132607" to="473403330" priority="3" type="highway.residential" spreadType="roadCenter" shape="10041.54,9283.99 10036.41,9289.92 9993.29,9342.45">
        <lane id="-11663107#5_0" index="0" disallow="all" speed="8.33" length="75.80" width="2.70" shape="10039.76,9288.11 10037.44,9290.79 9997.04,9340.01">
            <param key="origId" value="11663107"/>
        </lane>
    </edge>
    <edge id="-11663107#8" from="150536062" to="73132607" priority="3" type="highway.residential" spreadType="roadCenter" shape="10117.45,9192.04 10113.84,9196.76 10047.23,9277.13 10041.54,9283.99">
        <lane id="-11663107#8_0" index="0" disallow="all" speed="8.33" length="119.24" width="2.70" shape="10115.91,9196.28 10114.90,9197.60 10048.27,9277.99 10045.28,9281.59">
            <param key="origId" value="11663107"/>
        </lane>
    </edge>
    <edge id="-11663148#0" from="104304010" to="2202561100" priority="3" type="highway.residential" spreadType="roadCenter" shape="9964.68,9377.85 9969.25,9381.66 9991.76,9401.15">
        <lane id="-11663148#0_0" index="0" disallow="all" speed="8.33" length="39.33" width="2.70" shape="9968.84,9379.56 9970.12,9380.63 9993.40,9400.79">
            <param key="origId" value="11663148"/>
        </lane>
    </edge>
    <edge id="-11663148#2" from="104295048" to="104304010" priority="3" type="highway.residential" spreadType="roadCenter" shape="9888.15,9312.92 9959.61,9373.62 9964.68,9377.85">
        <lane id="-11663148#2_0" index="0" disallow="all" speed="8.33" length="100.36" width="2.70" shape="9892.54,9314.88 9960.48,9372.59 9962.25,9374.06">
            <param key="origId" value="11663148"/>
        </lane>
    </edge>
    <edge id="-11663148#5" from="73129590" to="104295048" priority="3" type="highway.residential" spreadType="roadCenter" shape="9813.53,9249.44 9817.19,9252.56 9881.56,9307.46 9888.15,9312.92">
        <lane id="-11663148#5_0" index="0" disallow="all" speed="8.33" length="97.97" width="2.70" shape="9818.00,9251.48 9882.43,9306.43 9885.43,9308.91">
            <param key="origId" value="11663148"/>
        </lane>
    </edge>
    <edge id="-11665173#1" from="47775326" to="47775343" priority="3" type="highway.residential" spreadType="roadCenter" shape="10059.26,9144.96 10064.43,9139.93 10128.20,9077.97">
        <lane id="-11665173#1_0" index="0" disallow="all" speed="8.33" length="96.13" width="2.70" shape="10061.57,9140.83 10063.49,9138.96 10124.00,9080.17">
            <param key="origId" value="11665173"/>
        </lane>
    </edge>
    <edge id="-11667106#1" from="26886959" to="clusterJ43_J44_clusterJ15_cluster26886958_J16_J18" priority="3" type="highway.residential" spreadType="roadCenter" shape="11472.46,8110.36 11507.60,8035.59 11509.16,8031.16 11511.40,8022.41 11512.76,8018.16">
        <lane id="-11667106#1_0" index="0" disallow="all" speed="8.33" length="113.35" width="2.70" shape="11472.89,8106.27 11506.35,8035.08 11507.87,8030.77 11510.10,8022.04 11511.47,8017.75">
            <param key="origId" value="11667106"/>
        </lane>
    </edge>
    <edge id="-11667106#4" from="43594249" to="26886959" priority="3" type="highway.residential" spreadType="roadCenter" shape="11442.40,8174.29 11444.48,8169.87 11469.14,8117.40 11472.46,8110.36">
        <lane id="-11667106#4_0" index="0" disallow="all" speed="8.33" length="70.64" width="2.70" shape="11442.42,8171.08 11443.26,8169.30 11467.92,8116.83 11469.29,8113.91">
            <param key="origId" value="11667106"/>
        </lane>
    </edge>
    <edge id="-11667106#6" from="43599533" to="43594249" priority="3" type="highway.residential" spreadType="roadCenter" shape="11418.06,8225.82 11438.47,8182.55 11442.40,8174.29">
        <lane id="-11667106#6_0" index="0" disallow="all" speed="8.33" length="56.99" width="2.70" shape="11417.99,8222.81 11437.25,8181.97 11439.78,8176.66">
            <param key="origId" value="11667106"/>
        </lane>
    </edge>
    <edge id="-11667106#8" from="26886960" to="43599533" priority="3" type="highway.residential" spreadType="roadCenter" shape="11394.23,8276.35 11397.37,8269.75 11418.06,8225.82">
        <lane id="-11667106#8_0" index="0" disallow="all" speed="8.33" length="55.87" width="2.70" shape="11394.69,8272.25 11396.15,8269.17 11415.55,8227.97">
            <param key="origId" value="11667106"/>
        </lane>
    </edge>
    <edge id="-11916106#1" from="6778578979" to="cluster29055496_J23_J24" priority="12" type="highway.primary" spreadType="roadCenter" shape="12193.12,8546.29 12233.20,8492.41 12251.94,8466.79">
        <lane id="-11916106#1_0" index="0" disallow="tram" speed="8.33" length="110.61" width="3.20" shape="12191.66,8540.22 12229.34,8489.56 12248.07,8463.96">
            <param key="origId" value="11916106"/>
        </lane>
        <lane id="-11916106#1_1" index="1" disallow="private passenger rail_fast" speed="8.33" length="110.61" width="3.20" shape="12194.22,8542.13 12231.91,8491.46 12250.65,8465.85">
            <param key="origId" value="11916106"/>
        </lane>
        <param key="ref" value="17"/>
    </edge>
    <edge id="-11917063#2" from="5116225774" to="631161268" priority="10" type="highway.tertiary" spreadType="roadCenter" shape="11203.01,9046.62 11174.11,9035.88 11153.28,9029.25 11134.76,9024.06 11122.41,9020.78">
        <lane id="-11917063#2_0" index="0" disallow="tram" speed="13.89" length="87.16" width="3.20" shape="11202.54,9049.86 11173.07,9038.91 11152.36,9032.32 11133.92,9027.15 11125.45,9024.90">
            <param key="origId" value="11917063"/>
        </lane>
    </edge>
    <edge id="-11917566#2" from="27256997" to="27256996" priority="10" type="highway.tertiary" spreadType="roadCenter" shape="10487.32,9604.78 10495.55,9600.54 10549.57,9572.49 10558.94,9567.43">
        <lane id="-11917566#2_0" index="0" disallow="tram" speed="8.33" length="80.78" width="3.20" shape="10490.52,9601.33 10494.81,9599.12 10548.82,9571.08 10551.57,9569.59">
            <param key="origId" value="11917566"/>
        </lane>
    </edge>
    <edge id="-11917566#5" from="30825863" to="27256997" priority="10" type="highway.tertiary" spreadType="roadCenter" shape="10394.72,9657.31 10407.92,9649.82 10452.53,9624.48 10480.16,9608.80 10487.32,9604.78">
        <lane id="-11917566#5_0" index="0" disallow="tram" speed="8.33" length="106.46" width="3.20" shape="10397.43,9653.93 10407.13,9648.43 10451.74,9623.09 10479.37,9607.41 10483.15,9605.28">
            <param key="origId" value="11917566"/>
        </lane>
    </edge>
    <edge id="-11918011" from="cluster211185009_J25_J27" to="30795581" priority="3" type="highway.residential" spreadType="roadCenter" shape="11614.57,8836.15 11637.81,8810.76 11641.77,8806.43 11662.17,8784.16">
        <lane id="-11918011_0" index="0" disallow="all" speed="13.89" length="65.69" width="2.70" shape="11617.59,8830.85 11636.81,8809.85 11640.77,8805.52 11658.61,8786.05">
            <param key="origId" value="11918011 1056324193 1056324193"/>
        </lane>
    </edge>
    <edge id="-121401274#1" from="5054921041" to="267276286" priority="3" type="highway.residential" spreadType="roadCenter" shape="10393.28,8525.85 10375.48,8552.96 10372.05,8558.60 10370.06,8562.11">
        <lane id="-121401274#1_0" index="0" disallow="all" speed="8.33" length="43.07" width="2.70" shape="10393.59,8527.84 10376.62,8553.68 10373.21,8559.28 10373.03,8559.61">
            <param key="origId" value="121401274"/>
        </lane>
    </edge>
    <edge id="-123288237#3" from="1422693071" to="cluster_1375430135_1422693067_3243152584" priority="3" type="highway.residential" spreadType="roadCenter" shape="12995.75,8413.76 12968.89,8394.86 12929.78,8367.33 12910.41,8353.70 12903.94,8348.97">
        <lane id="-123288237#3_0" index="0" disallow="pedestrian tram rail_urban rail rail_electric rail_fast ship cable_car subway" speed="8.33" length="114.52" width="2.70" shape="12994.97,8414.86 12968.11,8395.96 12929.00,8368.43 12909.62,8354.80 12909.28,8354.54">
            <param key="origId" value="123288237"/>
        </lane>
        <param key="origTo" value="1375430135"/>
    </edge>
    <edge id="-12618874#0" from="J1" to="1608392191" priority="10" type="highway.tertiary" spreadType="roadCenter" shape="12445.85,8706.87 12426.43,8747.80 12413.53,8781.55 12413.39,8795.80 12414.95,8804.27 12415.91,8807.64 12417.33,8812.81 12420.79,8819.68 12426.36,8827.90">
        <lane id="-12618874#0_0" index="0" disallow="tram" speed="13.89" length="130.78" width="3.20" shape="12445.11,8712.17 12427.90,8748.43 12415.13,8781.85 12414.99,8795.66 12416.51,8803.91 12417.45,8807.21 12418.83,8812.23 12422.17,8818.87 12425.44,8823.69">
            <param key="origId" value="12618874"/>
        </lane>
        <param key="origFrom" value="5183520274"/>
    </edge>
    <edge id="-12618874#5" from="clusterJ66_clusterJ65_cluster_5183520274_5715288025_75213080" to="J1" priority="10" type="highway.tertiary" spreadType="roadCenter" shape="12487.75,8625.78 12483.76,8632.67 12450.43,8697.21 12445.85,8706.87">
        <lane id="-12618874#5_0" index="0" disallow="tram" speed="13.89" length="95.21" width="3.20" shape="12485.45,8632.94 12485.16,8633.44 12453.05,8695.62">
            <param key="origId" value="12618874"/>
        </lane>
        <param key="origFrom" value="5183520274"/>
    </edge>
    <edge id="-127791716#1" from="cluster_301216590_453818" to="431068708" priority="3" type="highway.living_street" spreadType="roadCenter" shape="10066.14,9791.45 10055.36,9796.21 10047.32,9799.77 10005.66,9818.16">
        <lane id="-127791716#1_0" index="0" disallow="all" speed="5.56" length="68.62" shape="10066.37,9793.10 10056.01,9797.67 10047.97,9801.23 10007.68,9819.02">
            <param key="origId" value="127791716"/>
        </lane>
        <param key="origFrom" value="301216590"/>
    </edge>
    <edge id="-136538171#0" from="73132607" to="1497718181" priority="3" type="highway.residential" spreadType="roadCenter">
        <lane id="-136538171#0_0" index="0" disallow="all" speed="8.33" length="76.35" width="2.70" shape="10045.68,9285.60 10101.32,9330.49">
            <param key="origId" value="136538171"/>
        </lane>
    </edge>
    <edge id="-136538171#2" from="289764336" to="73132607" priority="3" type="highway.residential" spreadType="roadCenter" shape="9974.11,9229.10 10035.20,9278.84 10041.54,9283.99">
        <lane id="-136538171#2_0" index="0" disallow="all" speed="8.33" length="86.95" width="2.70" shape="9978.46,9230.90 10036.05,9277.79 10039.07,9280.24">
            <param key="origId" value="136538171"/>
        </lane>