<?xml version="1.0" encoding="UTF-8"?>

<!-- generated on 2026-01-26 16:42:59 by Eclipse SUMO netedit Version 1.22.0
-->

<routes xmlns:xsi="http://www.w3.org/2001/XMLSchema-instance" xsi:noNamespaceSchemaLocation="http://sumo.dlr.de/xsd/routes_file.xsd">
    <!-- VTypes -->
    <vType id="DEFAULT_VEHTYPE" vClass="tram"/>
    <vType id="aerialway" length="2.50" vClass="cable_car" width="2.00" personCapacity="4"/>
    <vType id="bus" vClass="bus"/>
    <vType id="ferry" vClass="ship"/>
    <vType id="light_rail" vClass="rail_urban"/>
    <vType id="minibus" vClass="bus"/>
    <vType id="monorail" vClass="rail_urban"/>
    <vType id="passenger" desiredMaxSpeed="12.50" speedFactor="normc(1.00,0.00)" vClass="passenger" sigma="0" startupDelay="0.75"/>
    <vType id="pt_aerialway" length="2.50" vClass="cable_car" width="2.00" personCapacity="4"/>
    <vType id="pt_bus" vClass="bus"/>
    <vType id="pt_ferry" vClass="ship"/>
    <vType id="pt_light_rail" vClass="rail_urban"/>
    <vType id="pt_minibus" vClass="bus"/>
    <vType id="pt_monorail" vClass="rail_urban"/>
    <vType id="pt_share_taxi" vClass="taxi"/>
    <vType id="pt_subway" vClass="subway"/>
    <vType id="pt_train" vClass="rail"/>
    <vType id="pt_tram" vClass="tram"/>
    <vType id="pt_trolleybus" vClass="bus"/>
    <vType id="share_taxi" vClass="taxi"/>
    <vType id="subway" vClass="subway"/>
    <vType id="t_0"/>
    <vType id="train" vClass="rail"/>
    <vType id="tram" vClass="tram"/>
    <vType id="trolleybus" vClass="bus"/>
    <!-- Routes -->
    <route id="1-40" edges="682608864#1 374528655 120613500#0 120613500#1 120613502 577248827#1 28908903#0 371344296#0 371344296#1 371344296#2 602621681 602621673 498169246 889067535 69184467#1 580414174 8143580#1 53275982#0 4734976#0 461211027 461211028 577246823#0 E8 E6 4687956#0"/>
    <route id="1-41" edges="682608864#1 374528655 4799417 1062629833 -596103315#2 -627360923 136617339#0 532158278#0 549356141#0 549356141#1 532158277#0 423368254#0 423368254#2 146783879#0 43068084#0 601313558#0 147633771#0 559462254#0"/>
    <route id="1-42" edges="682608864#1 374528655 4799417 1062629833 -596103315#2 -627360923 136617339#0 532158278#0 549356141#0 549356141#1 532158277#0 423368254#0 423368254#2 146783879#0 43068084#0 601313557#0 12618874#0 12618874#0.130 549020386#0 549020386#1 534851512#0 147636160#0 11916106#0 722646198 147636174#0 147636167 147636167.115 33556413#0 33556413#1 69537613 374407128 828445693#1 15677654#0 77079364#0 77079366 77078537#0 41455289#0 4479820#0"/>
    <route id="1-43" edges="682608864#1 374528655 4799417 1062629833 -596103315#2 -627360923 136617339#0 532158278#0 549356141#0 549356141#1 532158277#0 423368254#0 423368254#2 146783879#0 43068084#0 601313558#0 147633771#0 11943595#0 1163500949#0 1113744422#2 4393002#2 4393002#7 4376120#0 198488290#0 198488290#1 198488290#4 522547661#0 5198100#0"/>
    <route id="1-44" edges="682608864#1 374528655 4799417 1062629833 -596103315#2 -627360923 136617339#0 532158278#0 549356141#0 549356141#1 532158277#0 423368254#0 423368254#2 146783879#0 43068084#0 601313557#0 12618874#0 12618874#0.130 549020386#0 549020386#1 534851512#0 147636160#0 11916106#0 722646198 147636174#0 147636167 147636167.115 33556413#0 33556413#1 69537613 854904053 374407129#2 27361348#0 601718666#0 313458176#0 582263960#0"/>
    <route id="1-45" edges="682608864#1 374528655 120613500#0 120613500#1 120613502 577248827#1 51265912#0 51265912#1 1121964959#2 4730406#0 27014767 20020535#0 20020535#0.77 20020535#0.215 27014785#0 4730408#2 4687935#0 860373105#0 860373105#1 860373105#2 10750844#0 86145639#0 86145639#1 86145639#3 565560611#0 14389891#0 14389891#4 1163569502#0 188708011 172222117#0"/>
    <route id="1-46" edges="682608864#1 374528655 120613500#0 120613500#1 120613502 577248827#1 51265912#0 51265912#1 1121964959#2 4730406#0 27014767 20020535#0 20020535#0.77 20020535#0.215 27014785#0 4730408#2 4687935#0 860373105#0 860373105#1 860373105#2 10750844#0 86145639#0 86145639#1 86145639#3 28128202#0 28128202#2 506653388#0"/>
    <route id="1-47" edges="682608864#1 374528655 4799417 1062629833 -596103315#2 -332455405#1 -92142139 -4398951#1 -548370032 -548370033#1 4730416#1 548370035#0 548370031#1 334810149#0 334810149#1 548370029 968872142#0 968872142#1 548370028 548370030#0 968872143 548370037#0 548370037#1 28767220#0 35162766#0 331553004#0 1078174821 942348910#0 -86145636#2 86145637#0 284105538 -543129619#2"/>
    <route id="1-48" edges="682608864#1 374528655 120613500#0 120613500#1 120613502 577248827#1 51265912#0 51265912#1 1121964959#2 4730406#0 27014767 20020535#0 20020535#0.77 20020535#0.215 27014785#0 4730408#2 4730409#0 377260491#0"/>
    <route id="1-49" edges="682608864#1 374528655 120613500#0 120613500#1 120613502 577248827#1 51265912#0 51265912#1 1121964959#2 E5 E9 E10 217451773#0 -526017777#1 -526016665 -548529065 536841066 526016662#0 526016662#2 526016640#0 -11917063#2 -1089407128#2 -15675745#2 -842455631 -603349777#1 5944806#0 30640436#0 30640436#1 976011959#0 507747915 5944799#1 32928276 -488736536#2 -73223940#1 -284105543#1 -548701322#1 -464916844#1 -464916844#0 -70748324#1"/>
    <route id="1-50" edges="682608864#1 374528655 120613500#0 120613500#1 120613502 577248827#1 51265912#0 51265912#1 1121964959#2 E5 E9 E10 217451773#0 -526017777#1 -526016665 -548529065 536841066 526016662#0 526016662#2 526016640#0 -11917063#2 -1089407128#2 -15675745#2 -842455631 -603349777#1 5944806#0 30640436#0 30640436#1 976011959#0 507747915 5944799#1 32928276 149246860#0 149246860#3 149246860#5 537731487#0 152419232#0 32928524#0 32928524#1 32928524#3 32928521#0 537731485#0 537731485#2 32928505 24596908#0 -820964111#5 -820964111#1 -172288344#4 -172288344#2 -172288344#1"/>
    <route id="1-51" edges="682608864#1 374528655 120613500#0 120613500#1 120613502 577248827#1 51265912#0 51265912#1 1121964959#2 E5 E9 E10 217451773#0 -526017777#1 -526016665 -548529065 536841066 526016662#0 526016662#2 526016640#0 -11917063#2 -1089407128#2 -15675745#2 -842455631 -603349777#1 5944806#0 30640436#0 30640436#1 976011959#0 507747915 5944799#1 32928276 149246860#0 149246860#3 149246860#5 537731487#0 152419232#0 24586241#0 147161796#0 822520818#1 27473985#0"/>
    <route id="1-52" edges="682608864#1 374528655 120613500#0 120613500#1 120613502 577248827#1 51265912#0 51265912#1 1121964959#2 E5 E9 E10 217451773#0 -526017777#1 -526016665 -548529065 536841066 526016662#0 526016662#2 526016640#0 -11917063#2 -1089407128#2 -15675745#2 -842455631 -603349777#1 75470557#1 284686652#0 284686647#0 547047274#0 547047277#0 28682875#0 27433876#0 27433876#5 5944797 -70748314#3 -26154816#2 -26154817#2 -15218556#10 -15218556#8 -15218556#7 -15218556#5"/>
    <route id="1-53" edges="682608864#1 374528655 120613500#0 120613500#1 120613502 577248827#1 51265912#0 51265912#1 1121964959#2 E5 E9 E10 217451773#0 -526017777#1 -526016665 -548529065 536841066 526016662#0 526016662#2 526016640#0 -11917063#2 -1089407128#2 -15675745#2 -842455631 -603349777#1 75470557#1 284686652#0 284686647#0 547047274#0 547047277#0 28682875#0 27433876#0 27433876#5 5944797 -70748314#3 -26154816#2 -26154817#2 -15218556#10 -15218556#8 -15218556#7 -73848804#18 -73848804#16 -73848804#14 -73848804#13 -73848804#11 -73848804#8 -73848804#4 -73848804#2 -583730162#1 5881719#0"/>
    <route id="1-54" edges="682608864#1 374528655 120613500#0 120613500#1 120613502 577248827#1 51265912#0 51265912#1 1121964959#2 E5 E9 E10 217451773#0 -526017777#1 -526016665 -548529065 536841066 526016662#0 526016662#2 526016640#0 -11917063#2 -1089407128#2 -15675745#2 -842455631 -603349777#1 75470557#1 284686652#0 284686647#0 547047274#0 547047277#0 28682875#0 284686651#0 547047228 15218593#0 68485346#0 68485346#6 284686646#2 284686646#5 1163561640#0 826204850#0 826204850#2"/>
    <route id="1-55" edges="682608864#1 374528655 120613500#0 120613500#1 120613502 577248827#1 51265912#0 51265912#1 1121964959#2 E5 E9 E10 -821304189#1 -1111971585#4 -1111971585#2 -527458585#4 -527458585#4.48 -527458585#1 -4743764#3 374535325#0 1117202247#1 1139084789#0 1139084789#2 4803425 -683609958#5 -683609958#1 -683609958#0 -371342811#1 596514086#0 596514086#3 4803453#0 1007827873 41221165 170032532#1 170032532#2 71160126#0"/>
    <route id="1-56" edges="682608864#1 374528655 120613500#0 120613500#1 120613502 577248827#1 51265912#0 51265912#1 1121964959#2 E5 E9 E10 -821304189#1 -1111971585#4 -1111971585#2 -527458585#4 -527458585#4.48 -527458585#1 -4533227#5 -4533227#5.122 31261713#0"/>
    <route id="1-57-1" edges="682608864#1 374528655 4799417 1062629833 -596103315#2 92142133"/>
    <route id="1-57-2" edges="682608864#1 374528655 4799417 1062629833 -596103315#2 -332455405#1 -92142139 -4398951#1 -548370032 -548370033#1 4730416#1 548370035#0 548370031#1 334810149#0 334810149#1 548370029 968872142#0 968872142#1 548370028 548370030#0 548370036 15801838#0 33694486#0 -26127384#2"/>
    <route id="1-57-3" edges="682608864#1 374528655 120613500#0 120613500#1 120613502 577248827#1 51265912#0 51265912#1 1121964959#2 4730406#0 27014767 20020535#0 20020535#0.77 E2"/>
    <route id="1-57-4" edges="682608864#1 374528655 120613500#0 120613500#1 120613502 577248827#1 51265912#0 51265912#1 1121964959#2 E5 E9 E10 217451773#0 -526017777#1 -526016665 -548529065 -5772448#2"/>
    <route id="1-58-1" edges="682608864#1 374528655 4799417 1062629833 -596103315#2 -627360923 136617339#0 532158278#0 549356141#0 549356141#1 532158277#0 423368254#0 423368254#2 146783879#0 43068084#0 601313557#0 12618874#0 12618874#0.130 549020386#0 549020386#1 534851512#0 147636160#0 11916106#0 722646198 623570426#0"/>
    <route id="1-58-2" edges="682608864#1 374528655 4799417 1062629833 -596103315#2 -627360923 136617339#0 532158278#0 549356141#0 549356141#1 532158277#0 423368254#0 423368254#2 146783879#0 43068084#0 601313557#0 12618874#0 12618874#0.130 549020386#0 549020386#1 534851512#0 361876821 569781024 147692717#0"/>
    <route id="1-58-3" edges="682608864#1 374528655 4799417 1062629833 -596103315#2 -627360923 136617339#0 532158278#0 549356141#0 549356141#1 532158277#0 423368254#0 423368254#2 146783879#0 43068084#0 601313557#0 12618874#0 E0"/>
    <route id="1-59-1" edges="682608864#1 374528655 120613500#0 120613500#1 120613502 577248827#1 51265912#0 51265912#1 1121964959#2 E5 E9 E10 -821304189#1 -1111971585#4 -1111971585#2 -527458585#4 E12"/>
    <route id="1-59-2" edges="682608864#1 374528655 120613500#0 120613500#1 120613502 577248827#1 51265912#0 51265912#1 1121964959#2 E5 E9 E10 -821304189#1 -1111971585#4 -1111971585#2 -527458585#4 -527458585#4.48 -527458585#1 -4743764#3 -4533225#7 -4533225#2 -313465295#6 4592655#0"/>
    <route id="10-38" edges="31901962#1 28373092#0 1163566969#0 544415710#0 -565560611#2 -86145639#5 -86145639#2 -86145639#0 -10750844#1 -942348910#1 -43586070#2 -331553004#1 -942456035#1 5079287#0 33693799#0 33693780#0 33693780#2 33693780#4 543888804#0 543888805 332455398#1 332455374#1 548370032 4398951#0 92142139 92142136 596103315#0 27331400#0 27331400#1 27331408#0 35164367 294148768"/>
    <route id="10-39" edges="31901962#1 28373092#0 1163566969#0 544415710#0 -565560611#2 -86145639#5 -86145639#2 -86145639#0 -10750844#1 -942348910#1 -43586070#2 -331553004#1 -942456035#1 5079287#0 33693799#0 33693780#0 33693780#2 33693780#4 543888804#0 543888805 332455398#1 332455374#1 548370032 4398951#0 92142139 92142136 596103315#0 27331400#0 27331400#1 27331408#0 35164367 8139899#0 8139899#1 120613506#0"/>
    <route id="10-40" edges="31901962#1 28373092#0 1163566969#0 544415710#0 -565560611#2 -86145639#5 -86145639#2 -86145639#0 -10750844#1 -942348910#1 -43586070#2 -331553004#1 -942456035#1 5079287#0 33693799#0 33693780#0 33693780#2 33693780#4 543888804#0 543888805 332455398#1 332455374#1 548370032 4398951#0 92142139 92142136 -627360923 136617339#0 532158278#0 549356141#0 549356141#1 532158277#0 -145204590#6 -145204590#1 71167245#0 E7 E6 4687956#0"/>
    <route id="10-41" edges="31901962#1 28373092#0 1163566969#0 544415710#0 5074558#0 5074558#4 5074558#4.57 1163565846#0 1163565846#2 4398897 544418922#0 148349696#0 41459882#0 60447876#0 60447874#0 60447874#2 33556413#0 33556413#1 69537613 374407128 828445693#1 15677654#0 77079364#0 77079366 77078537#0 -12618874#5 -12618874#0 -601313557#4 601313558#0 147633771#0 559462254#0"/>
    <route id="10-42" edges="31901962#1 28373092#0 1163566969#0 544415710#0 5074558#0 5074558#4 5074558#4.57 1163565846#0 1163565846#2 4398897 544418922#0 148349696#0 41459882#0 60447876#0 60447874#0 60447874#2 33556413#0 33556413#1 69537613 374407128 828445693#1 15677654#0 77079364#0 77079366 77078537#0 41455289#0 4479820#0"/>
    <route id="10-43" edges="31901962#1 28373092#0 1163566969#0 544415710#0 5074558#0 5074558#4 5074558#4.57 1163565846#0 1163565846#2 4398897 544418922#0 148349696#0 41459882#0 60447876#0 60447874#0 60447874#2 33556413#0 33556413#1 69537613 374407128 828445693#1 15677654#0 77079364#0 77079366 77078537#0 -12618874#5 -12618874#0 -601313557#4 601313558#0 147633771#0 11943595#0 1163500949#0 1113744422#2 4393002#2 4393002#7 4376120#0 198488290#0 198488290#1 198488290#4 522547661#0 5198100#0"/>
    <route id="10-44" edges="31901962#1 28373092#0 1163566969#0 544415710#0 5074558#0 5074558#4 5074558#4.57 1163565846#0 1163565846#2 4398897 544418922#0 148349696#0 41459882#0 60447876#0 60447874#0 60447874#2 33556413#0 33556413#1 69537613 854904053 374407129#2 27361348#0 601718666#0 313458176#0 582263960#0"/>
    <route id="10-55" edges="31901962#1 28373092#0 1163566969#0 544415710#0 -565560611#2 -86145639#5 -86145639#2 -86145639#0 -10750844#1 -860373105#4 -860373105#1 -860373105#0 524434352#0 543698012#0 4572089#0 4440330#0 860373106#0 860373106#1 1163547442 1122939439#0 1122939439#4 -298904471#1 298904469#1 298904469#3 313465298#0 596514120#0 596514119#0 29116100#0 29116100#2 29116100#4 29116100#6 -4803465#5 596514086#0 596514086#3 4803453#0 1007827873 41221165 170032532#1 170032532#2 71160126#0"/>
    <route id="10-56" edges="31901962#1 28373092#0 1163566969#0 544415710#0 -565560611#2 -86145639#5 -86145639#2 -86145639#0 -10750844#1 -860373105#4 -860373105#1 -860373105#0 524434352#0 543698012#0 4572089#0 4440330#0 860373106#0 860373106#1 1163547442 1122939439#0 1122939439#4 -298904471#1 298904469#1 298904469#3 313465298#0 596514120#0 596514119#0 29116101#0 29116101#2 28682845#0 28682845#1 28682845#3 28682845#5 28682845#7 192236405#0 31261713#0"/>
    <route id="10-57-1" edges="31901962#1 28373092#0 1163566969#0 544415710#0 -565560611#2 -86145639#5 -86145639#2 -86145639#0 -10750844#1 -942348910#1 -43586070#2 -331553004#1 -942456035#1 5079287#0 33693799#0 33693780#0 33693780#2 33693780#4 543888804#0 543888805 332455398#1 332455374#1 548370032 -146778067#1"/>
    <route id="10-57-2" edges="31901962#1 28373092#0 1163566969#0 544415710#0 -565560611#2 -86145639#5 -86145639#2 -86145639#0 -10750844#1 -942348910#1 -43586070#2 -331553004#1 -942456035#1 5079287#0 33693799#0 33694486#0 -26127384#2"/>
    <route id="10-57-3" edges="31901962#1 28373092#0 1163566969#0 544415710#0 -565560611#2 -86145639#5 -86145639#2 -86145639#0 -10750844#1 -860373105#4 -860373105#1 -860373105#0 524434352#0 543698012#0 4572089#0 15675937#0 548529066#0 526016643#0 -536841066 -28630236#1 526016665 526017777#0 378128430#0 217451769 20020535#0 20020535#0.77 E2"/>
    <route id="10-57-4" edges="31901962#1 28373092#0 1163566969#0 544415710#0 -565560611#2 -86145639#5 -86145639#2 -86145639#0 -10750844#1 -860373105#4 -860373105#1 -860373105#0 524434352#0 543698012#0 4572089#0 15675937#0 548529066#0 526016643#0 546792882#0"/>
    <route id="10-58-1" edges="31901962#1 28373092#0 1163566969#0 544415710#0 5074558#0 5074558#4 5074558#4.57 1163565846#0 1163565846#2 4398897 544418922#0 148349696#0 41459882#0 60447876#0 60447874#0 60447874#2 33556413#0 33556413#1 69537613 374407128 828445693#1 147636160#0 11916106#0 722646198 623570426#0"/>
    <route id="10-58-2" edges="31901962#1 28373092#0 1163566969#0 544415710#0 5074558#0 5074558#4 5074558#4.57 1163565846#0 1163565846#2 4398897 544418922#0 148349696#0 41459882#0 60447876#0 147692717#0"/>
    <route id="10-58-3" edges="31901962#1 28373092#0 1163566969#0 544415710#0 5074558#0 5074558#4 5074558#4.57 1163565846#0 1163565846#2 4398897 544418922#0 148349696#0 41459882#0 60447876#0 60447874#0 60447874#2 33556413#0 33556413#1 69537613 374407128 828445693#1 15677654#0 77079364#0 77079366 77078537#0 -12618874#5 E0"/>
    <route id="11-38" edges="5068112#0 -1163544455#1 -86145637#1 86145636#0 -942348910#1 -43586070#2 -331553004#1 -942456035#1 5079287#0 33693799#0 33693780#0 33693780#2 33693780#4 543888804#0 543888805 332455398#1 332455374#1 548370032 4398951#0 92142139 92142136 596103315#0 27331400#0 27331400#1 27331408#0 35164367 294148768"/>
    <route id="11-39" edges="5068112#0 -1163544455#1 -86145637#1 86145636#0 -942348910#1 -43586070#2 -331553004#1 -942456035#1 5079287#0 33693799#0 33693780#0 33693780#2 33693780#4 543888804#0 543888805 332455398#1 332455374#1 548370032 4398951#0 92142139 92142136 596103315#0 27331400#0 27331400#1 27331408#0 35164367 8139899#0 8139899#1 120613506#0"/>
    <route id="11-40" edges="5068112#0 -1163544455#1 -86145637#1 86145636#0 -942348910#1 -43586070#2 -331553004#1 -942456035#1 5079287#0 33693799#0 33693780#0 33693780#2 33693780#4 543888804#0 543888805 332455398#1 332455374#1 548370032 4398951#0 92142139 92142136 -627360923 136617339#0 532158278#0 549356141#0 549356141#1 532158277#0 -145204590#6 -145204590#1 71167245#0 E7 E6 4687956#0"/>
    <route id="11-41" edges="5068112#0 -1163544455#1 -86145637#1 86145636#0 -942348910#1 -43586070#2 -331553004#1 -942456035#1 5079287#0 33693799#0 33693780#0 33693780#2 33693780#4 543888804#0 543888805 332455398#1 332455374#1 548370032 4398951#0 92142139 92142136 -627360923 136617339#0 532158278#0 549356141#0 549356141#1 532158277#0 423368254#0 423368254#2 146783879#0 43068084#0 601313558#0 147633771#0 559462254#0"/>
    <route id="11-42" edges="5068112#0 -1163544455#1 -86145637#1 86145636#0 -942348910#1 -43586070#2 -331553004#1 550432841#0 35162767#0 35162767#1 651999512#0 550432840#0 550432838#0 942285773#0 544418922#0 148349696#0 41459882#0 60447876#0 60447874#0 60447874#2 33556413#0 33556413#1 69537613 374407128 828445693#1 15677654#0 77079364#0 77079366 77078537#0 41455289#0 4479820#0"/>
    <route id="11-43" edges="5068112#0 -1163544455#1 -86145637#1 86145636#0 -942348910#1 -43586070#2 -331553004#1 -942456035#1 5079287#0 33693799#0 33693780#0 33693780#2 33693780#4 543888804#0 543888805 332455398#1 332455374#1 548370032 4398951#0 92142139 92142136 -627360923 136617339#0 532158278#0 549356141#0 549356141#1 532158277#0 423368254#0 423368254#2 146783879#0 43068084#0 601313558#0 147633771#0 11943595#0 1163500949#0 1113744422#2 4393002#2 4393002#7 4376120#0 198488290#0 198488290#1 198488290#4 522547661#0 5198100#0"/>
    <route id="11-44" edges="5068112#0 -1163544455#1 -86145637#1 86145636#0 -942348910#1 -43586070#2 -331553004#1 550432841#0 35162767#0 35162767#1 651999512#0 550432840#0 550432838#0 942285773#0 544418922#0 148349696#0 41459882#0 60447876#0 60447874#0 60447874#2 33556413#0 33556413#1 69537613 854904053 374407129#2 27361348#0 601718666#0 313458176#0 582263960#0"/>
    <route id="11-55" edges="5068112#0 -1163544455#1 -86145637#1 86145636#0 -942348910#1 -43586070#2 -331553004#1 -942456035#1 5079287#0 33693799#0 33694486#0 33695352#0 525958045#0 33693225 550432834#0 4572161#0 526016653#2 526016651 526016640#0 -11917063#2 -1089407128#2 1122939439#0 1122939439#4 -298904471#1 298904469#1 298904469#3 313465298#0 596514120#0 596514119#0 29116100#0 29116100#2 29116100#4 29116100#6 -4803465#5 596514086#0 596514086#3 4803453#0 1007827873 41221165 170032532#1 170032532#2 71160126#0"/>
    <route id="11-56" edges="5068112#0 -1163544455#1 -86145637#1 86145636#0 -942348910#1 -43586070#2 -331553004#1 -942456035#1 5079287#0 33693799#0 33694486#0 33695352#0 525958045#0 33693225 550432834#0 4572161#0 526016653#2 526016651 526016643#0 -536841066 -28630236#1 526016665 526017777#0 4533226#0 699663268#1 699663268#3 699663268#6 4743764#0 -4533227#5 -4533227#5.122 31261713#0"/>
    <route id="11-57-1" edges="5068112#0 -1163544455#1 -86145637#1 86145636#0 -942348910#1 -43586070#2 -331553004#1 -942456035#1 5079287#0 33693799#0 33693780#0 33693780#2 33693780#4 543888804#0 543888805 332455398#1 332455374#1 548370032 -146778067#1"/>
    <route id="11-57-2" edges="5068112#0 -1163544455#1 -86145637#1 86145636#0 -942348910#1 -43586070#2 -331553004#1 -942456035#1 5079287#0 33693799#0 33694486#0 -26127384#2"/>
    <route id="11-57-3" edges="5068112#0 -1163544455#1 -86145637#1 86145636#0 -942348910#1 -43586070#2 -331553004#1 -942456035#1 5079287#0 33693799#0 33694486#0 33695352#0 525958045#0 33693225 550432834#0 4572161#0 526016653#2 526016651 526016643#0 -536841066 -28630236#1 526016665 526017777#0 378128430#0 217451769 20020535#0 20020535#0.77 E2"/>
    <route id="11-57-4" edges="5068112#0 -1163544455#1 -86145637#1 86145636#0 -942348910#1 -43586070#2 -331553004#1 -942456035#1 5079287#0 33693799#0 33694486#0 33695352#0 525958045#0 33693225 550432834#0 4572161#0 526016653#2 526016651 526016643#0 546792882#0"/>
    <route id="11-58-1" edges="5068112#0 -1163544455#1 -86145637#1 86145636#0 -942348910#1 -43586070#2 -331553004#1 550432841#0 35162767#0 35162767#1 651999512#0 550432840#0 550432838#0 942285773#0 544418922#0 148349696#0 41459882#0 60447876#0 60447874#0 60447874#2 33556413#0 33556413#1 69537613 374407128 828445693#1 147636160#0 11916106#0 722646198 623570426#0"/>
    <route id="11-58-2" edges="5068112#0 -1163544455#1 -86145637#1 86145636#0 -942348910#1 -43586070#2 -331553004#1 550432841#0 35162767#0 35162767#1 651999512#0 550432840#0 550432838#0 942285773#0 544418922#0 148349696#0 41459882#0 60447876#0 147692717#0"/>
    <route id="11-58-3" edges="5068112#0 -1163544455#1 -86145637#1 86145636#0 -942348910#1 -43586070#2 -331553004#1 550432841#0 35162767#0 35162767#1 651999512#0 550432840#0 550432838#0 942285773#0 544418922#0 148349696#0 41459882#0 60447876#0 60447874#0 60447874#2 33556413#0 33556413#1 69537613 374407128 828445693#1 15677654#0 77079364#0 77079366 77078537#0 -12618874#5 E0"/>
    <route id="12-38" edges="817867131#0 188708013#0 188708013#1 817867132#0 15675937#0 548529066#0 526016643#0 -536841066 -28630236#1 526016665 526017777#0 378128430#0 217451769 1047288491 429288348 332455407#0 332455407#1 140726947#0 609970340#0 536908734#0 536908725#0 371344296#0 371344296#1 371344296#2 602621681 602621673 498169246 889067535 37684124#0 35164367 294148768"/>
    <route id="12-39" edges="817867131#0 188708013#0 188708013#1 817867132#0 15675937#0 548529066#0 526016643#0 -536841066 -28630236#1 526016665 526017777#0 378128430#0 217451769 1047288491 429288348 332455407#0 332455407#1 140726947#0 609970340#0 536908734#0 536908725#0 371344296#0 371344296#1 371344296#2 602621681 602621673 498169246 889067535 37684124#0 35164367 8139899#0 8139899#1 120613506#0"/>
    <route id="12-40" edges="817867131#0 188708013#0 188708013#1 817867132#0 15675937#0 548529066#0 526016643#0 -536841066 -28630236#1 526016665 526017777#0 378128430#0 217451769 1047288491 429288348 332455407#0 332455407#1 140726947#0 609970340#0 536908734#0 536908725#0 371344296#0 371344296#1 371344296#2 602621681 602621673 498169246 889067535 69184467#1 580414174 8143580#1 53275982#0 4734976#0 461211027 461211028 577246823#0 E8 E6 4687956#0"/>
    <route id="12-41" edges="817867131#0 188708013#0 188708013#1 817867132#0 15675937#0 548529066#0 526016652#0 1165309879#0 526016615#0 526016615#1 33693799#0 33693780#0 33693780#2 33693780#4 543888804#0 543888805 332455398#1 332455374#1 548370032 4398951#0 92142139 92142136 -627360923 136617339#0 532158278#0 549356141#0 549356141#1 532158277#0 423368254#0 423368254#2 146783879#0 43068084#0 601313558#0 147633771#0 559462254#0"/>
    <route id="12-42" edges="817867131#0 188708013#0 188708013#1 817867132#0 38259359 4687935#0 860373105#0 860373105#1 860373105#2 10750844#0 86145639#0 86145639#1 86145639#3 565560611#0 5074558#0 5074558#4 5074558#4.57 1163565846#0 1163565846#2 4398897 544418922#0 148349696#0 41459882#0 60447876#0 60447874#0 60447874#2 33556413#0 33556413#1 69537613 374407128 828445693#1 15677654#0 77079364#0 77079366 77078537#0 41455289#0 4479820#0"/>
    <route id="12-43" edges="817867131#0 188708013#0 188708013#1 817867132#0 15675937#0 548529066#0 526016652#0 1165309879#0 526016615#0 526016615#1 33693799#0 33693780#0 33693780#2 33693780#4 543888804#0 543888805 332455398#1 332455374#1 548370032 4398951#0 92142139 92142136 -627360923 136617339#0 532158278#0 549356141#0 549356141#1 532158277#0 423368254#0 423368254#2 146783879#0 43068084#0 601313558#0 147633771#0 11943595#0 1163500949#0 1113744422#2 4393002#2 4393002#7 4376120#0 198488290#0 198488290#1 198488290#4 522547661#0 5198100#0"/>
    <route id="12-44" edges="817867131#0 188708013#0 188708013#1 817867132#0 38259359 4687935#0 860373105#0 860373105#1 860373105#2 10750844#0 86145639#0 86145639#1 86145639#3 565560611#0 5074558#0 5074558#4 5074558#4.57 1163565846#0 1163565846#2 4398897 544418922#0 148349696#0 41459882#0 60447876#0 60447874#0 60447874#2 33556413#0 33556413#1 69537613 854904053 374407129#2 27361348#0 601718666#0 313458176#0 582263960#0"/>
    <route id="12-49" edges="817867131#0 188708013#0 188708013#1 817867132#0 4440330#0 860373106#0 860373106#1 1163547442 1122939439#0 1122939439#4 -298904471#1 298904469#1 298904469#3 313465298#0 596514120#0 596514119#0 29116101#0 29116101#2 -26646072#1 4743773#0 -313465295#0 -1011249147#0 -596514115 -207098749#6 -207098749#2 4743769#3 967647588#0 967647590#1 208143935#0 976011959#0 507747915 5944799#1 32928276 -488736536#2 -73223940#1 -284105543#1 -548701322#1 -464916844#1 -464916844#0 -70748324#1"/>
    <route id="12-50" edges="817867131#0 188708013#0 188708013#1 817867132#0 4440330#0 860373106#0 860373106#1 1163547442 1122939439#0 1122939439#4 -298904471#1 298904469#1 298904469#3 313465298#0 596514120#0 596514119#0 29116101#0 29116101#2 -26646072#1 4743773#0 -313465295#0 -1011249147#0 -596514115 -207098749#6 -207098749#2 4743769#3 967647588#0 967647590#1 208143935#0 976011959#0 507747915 5944799#1 32928276 149246860#0 149246860#3 149246860#5 537731487#0 152419232#0 32928524#0 32928524#1 32928524#3 32928521#0 537731485#0 537731485#2 32928505 24596908#0 -820964111#5 -820964111#1 -172288344#4 -172288344#2 -172288344#1"/>
    <route id="12-51" edges="817867131#0 188708013#0 188708013#1 817867132#0 4440330#0 860373106#0 860373106#1 1163547442 1122939439#0 1122939439#4 -298904471#1 298904469#1 298904469#3 313465298#0 596514120#0 596514119#0 29116101#0 29116101#2 -26646072#1 4743773#0 -313465295#0 -1011249147#0 -596514115 -207098749#6 -207098749#2 4743769#3 967647588#0 967647590#1 208143935#0 976011959#0 507747915 5944799#1 32928276 149246860#0 149246860#3 149246860#5 537731487#0 152419232#0 24586241#0 147161796#0 822520818#1 27473985#0"/>
    <route id="12-52" edges="817867131#0 188708013#0 188708013#1 817867132#0 4440330#0 860373106#0 860373106#1 1163547442 1122939439#0 1122939439#4 -298904471#1 298904469#1 298904469#3 313465298#0 596514120#0 596514119#0 29116101#0 29116101#2 -26646072#1 4743773#0 -313465295#0 -1011249147#0 -596514115 -207098749#6 -207098749#2 284686647#0 547047274#0 547047277#0 28682875#0 27433876#0 27433876#5 5944797 -70748314#3 -26154816#2 -26154817#2 -15218556#10 -15218556#8 -15218556#7 -15218556#5"/>
    <route id="12-55" edges="817867131#0 188708013#0 188708013#1 817867132#0 4440330#0 860373106#0 860373106#1 1163547442 1122939439#0 1122939439#4 -298904471#1 298904469#1 298904469#3 313465298#0 596514120#0 596514119#0 29116100#0 29116100#2 29116100#4 29116100#6 -4803465#5 596514086#0 596514086#3 4803453#0 1007827873 41221165 170032532#1 170032532#2 71160126#0"/>
    <route id="12-56" edges="817867131#0 188708013#0 188708013#1 817867132#0 4440330#0 860373106#0 860373106#1 1163547442 1122939439#0 1122939439#4 -298904471#1 298904469#1 298904469#3 313465298#0 596514120#0 596514119#0 29116101#0 29116101#2 28682845#0 28682845#1 28682845#3 28682845#5 28682845#7 192236405#0 31261713#0"/>
    <route id="12-57-1" edges="817867131#0 188708013#0 188708013#1 817867132#0 15675937#0 548529066#0 526016643#0 -536841066 -28630236#1 526016665 526017777#0 378128430#0 217451769 1047288491 429288348 332455407#0 332455407#1 140726947#0 609970340#0 527481483#0"/>
    <route id="12-57-2" edges="817867131#0 188708013#0 188708013#1 817867132#0 15675937#0 548529066#0 526016652#0 1165309879#0 526016615#0 526016615#1 33693799#0 33694486#0 -26127384#2"/>
    <route id="12-57-3" edges="817867131#0 188708013#0 188708013#1 817867132#0 15675937#0 548529066#0 526016643#0 -536841066 -28630236#1 526016665 526017777#0 378128430#0 217451769 20020535#0 20020535#0.77 E2"/>
    <route id="12-58-1" edges="817867131#0 188708013#0 188708013#1 817867132#0 38259359 4687935#0 860373105#0 860373105#1 860373105#2 10750844#0 86145639#0 86145639#1 86145639#3 565560611#0 5074558#0 5074558#4 5074558#4.57 1163565846#0 1163565846#2 4398897 544418922#0 148349696#0 41459882#0 60447876#0 60447874#0 60447874#2 33556413#0 33556413#1 69537613 374407128 828445693#1 147636160#0 11916106#0 722646198 623570426#0"/>
    <route id="12-58-2" edges="817867131#0 188708013#0 188708013#1 817867132#0 38259359 4687935#0 860373105#0 860373105#1 860373105#2 10750844#0 86145639#0 86145639#1 86145639#3 565560611#0 5074558#0 5074558#4 5074558#4.57 1163565846#0 1163565846#2 4398897 544418922#0 148349696#0 41459882#0 60447876#0 147692717#0"/>
    <route id="12-58-3" edges="817867131#0 188708013#0 188708013#1 817867132#0 15675937#0 548529066#0 526016652#0 1165309879#0 526016615#0 526016615#1 33693799#0 33693780#0 33693780#2 33693780#4 543888804#0 543888805 332455398#1 332455374#1 548370032 4398951#0 92142139 92142136 -627360923 136617339#0 532158278#0 549356141#0 549356141#1 532158277#0 423368254#0 423368254#2 146783879#0 43068084#0 601313557#0 12618874#0 E0"/>